units(length='cm', time='s', quantity='mol', act_energy='kcal/mol')

ideal_gas(name='gas',
          elements="H D T C Ci O Oi N Ne Ar He Si S Cl X",
          species="""N2          Ne          Ar(8)       C7H16(1)
                     O2(2)(2)    H(3)(3)     O(4)(4)     OH(5)(5)
                     H2(6)(6)    H2O(7)(7)   He(9)(8)    HO2(8)(9)
                     H2O2(10)    CO(10)(11)  CO2(12)     CHO2(13)
                     CH2O(14)    CHO(15)     CH3(16)     CH4(17)
                     CH2(18)     CH(18)(19)  C2H4(20)    CH4O(21)
                     CH2(22)     CH3O(23)    CH3O(24)    CH2O(25)
                     CH3O2(26)   C2H2O(27)   C2H5(28)    C2H3(29)
                     C(29)(30)   C2H2(31)    C2H(32)     CH4O2(33)
                     CH3O2(34)   C2H6(35)    C2H4O(36)   C2H5O(37)
                     C2H5O2(38)  C2H3O(39)   C2H4O(40)   C2H5O(41)
                     C2H4O(42)   C2H5O2(43)  C2H3O2(44)  C2H2O(45)
                     C2H2O2(46)  C2HO(47)    C2H2O(48)   C2H3O(49)
                     C2(50)(50)  C2H6O(51)   C2H5O(52)   C2H5O3(53)
                     C2H3O(54)   C2H3O(55)   CH2O2(56)   C2H3O3(57)
                     C2HO2(58)   C2H6O2(59)  C2H5O2(60)  C2H4O2(61)
                     CH3O2(62)   CHO2(63)    C2H4O3(64)  C2H3O2(65)
                     C5H11(66)   C4H9(67)    C3H7(68)    C7H15(69)
                     C7H15(70)   C7H15(71)   S(73)(72)   S(74)(73)
                     S(75)(74)   C4H9O2(75)  C3H7O2(76)  C6H13(77)
                     C6H12(78)   C4H8(79)    C6H13(80)   C5H10(81)
                     C3H6(82)    S(84)(83)   C7H15(84)   C2H4(85)
                     C2H3O2(86)  C2H3O3(87)  C3H5(88)    S(90)(89)
                     C3H5O2(90)  C4H8(91)    C4H5O(92)   C4H8(93)
                     S(95)(94)   C4H9O2(95)  C3H7O2(96)  S(98)(97)
                     S(99)(98)   C2H2O(99)   S(100)      S(101)
                     S(102)      S(103)      S(104)      C4H7(105)
                     S(106)      S(107)      S(108)      C4H6(109)
                     C3H5O(110)  C4H6(111)   C3H4O(112)  S(113)
                     C4H7O(114)  C3H4O(115)  C3H4O(116)  S(117)
                     S(118)      S(119)      C3H4O(120)  C3H4O(121)
                     C4H6(122)   C3H4O(123)  S(124)      S(125)
                     S(126)      S(127)      C5H9O(128)  S(129)
                     S(130)      S(131)      C5H9O(132)  C3H5O(133)
                     C3H5O(134)  S(135)      S(136)      S(137)
                     S(138)      S(139)      S(140)      S(141)
                     S(142)      S(143)      S(144)      S(145)
                     S(146)      CHO3(147)   S(148)      S(149)
                     S(150)      S(151)      S(152)      S(153)
                     S(154)      S(155)      S(156)      S(157)
                     S(158)      S(159)      S(160)      O2(161)
                     S(162)      S(163)      S(164)      S(165)
                     S(166)      S(167)      S(168)      S(169)
                     S(170)      S(171)      S(172)      S(173)
                     S(174)      S(175)      S(176)      S(177)
                     S(178)      S(179)      S(180)      S(181)
                     C4H8O(182)  S(183)      S(184)      CHO3(185)
                     S(186)      C5H9(187)   S(188)      S(189)
                     S(190)      S(191)      C4H8O(192)  S(193)
                     S(194)      S(195)      C2H4O(196)  S(197)
                     S(198)      S(199)      C3H6O(200)  S(201)
                     C5H8(202)   S(203)      C5H8(204)   S(205)
                     S(206)      S(207)      S(208)      S(209)
                     C5H7(210)   S(211)      S(212)      S(213)
                     S(214)      C5H7O(215)  C5H6O(216)  C5H6O(217)
                     C5H6O(218)  C5H6O(219)  S(220)      C5H6O(221)
                     C5H6O(222)  C5H7O(223)  C4H9(224)   S(225)
                     S(226)      S(227)      C3H7(228)   S(229)
                     C5H6O(230)  S(231)      S(232)      C5H6O(233)
                     S(234)      S(235)      C5H7O(236)  S(237)
                     S(238)      S(239)      S(240)      C4H6O(241)
                     S(242)      S(243)      S(244)      S(245)
                     S(246)      S(247)      S(248)      S(249)
                     S(250)      S(251)      S(252)      S(253)
                     S(254)      S(255)      S(256)      S(257)
                     S(258)      S(259)      S(260)      S(261)
                     S(262)      S(263)      S(264)      S(265)
                     S(266)      S(267)      S(268)      S(269)
                     S(270)      CH2O3(271)  S(272)      S(273)
                     S(274)      S(275)      S(276)      S(277)
                     C3H5O(278)  S(279)      S(280)      S(281)
                     S(282)      S(283)      S(284)      S(285)
                     S(286)      S(287)      S(288)      S(289)
                     S(290)      S(291)      S(292)      S(293)
                     S(294)      C3H7O(295)  S(296)      S(297)
                     S(298)      S(299)      S(300)      S(301)
                     S(302)      S(303)      S(304)      S(305)
                     S(306)      S(307)      S(308)      S(309)
                     C6H9O(310)  S(311)      S(312)      S(313)
                     S(314)      C6H9O(315)  S(316)      S(317)
                     S(318)      C6H8O(319)  S(320)      S(321)
                     S(322)      S(323)      S(324)      C6H9O(325)
                     S(326)      S(327)      S(328)      C4H7(329)
                     C6H11(330)  S(331)      S(332)      S(333)
                     S(334)      S(335)      C3H5O(336)  S(337)
                     S(338)      S(339)      C3H5O(340)  S(341)
                     S(342)      S(343)      S(344)      S(345)
                     S(346)      S(347)      S(348)      C6H8O(349)
                     S(350)      S(351)      S(352)      S(353)
                     S(354)      S(355)      S(356)      S(357)
                     S(358)      C4H7(359)   S(360)      S(361)
                     S(362)      C6H10(363)  S(364)      S(365)
                     C6H9(366)   C6H10(367)  S(368)      S(369)
                     S(370)      S(371)      S(372)      C3H5O(373)
                     S(374)      S(375)      S(376)      S(377)
                     S(378)      C6H8(379)   C6H8(380)   C6H8(381)
                     S(382)      S(383)      S(384)      S(385)
                     S(386)      C6H8(387)   C6H8(388)   S(389)
                     C6H8(390)   S(391)      S(392)      S(393)
                     S(394)      S(395)      S(396)      S(397)
                     S(398)      S(399)      S(400)      S(401)
                     S(402)      S(403)      S(404)      S(405)
                     C7H10(406)  C7H9(407)   C7H10(408)  C7H11(409)
                     S(410)      S(411)      C7H9O(412)  S(413)
                     C7H8(414)   S(415)      C7H8O(416)  C7H8O(417)
                     S(418)      S(419)      S(420)      S(421)
                     C2H2(422)   C7H9(423)   C7H10(424)  C7H10(425)
                     C7H11(426)  S(427)      S(428)      S(429)
                     S(430)      S(431)      S(432)      C7H10(433)
                     S(434)      C7H8(435)   S(436)      S(437)
                     S(438)      S(439)      S(440)      S(441)
                     S(442)      S(443)      S(444)      S(445)
                     C7H10(446)  S(447)      C7H9(448)   S(449)
                     S(450)      C7H9(451)   C7H9(452)   S(453)
                     S(454)      S(455)      S(456)      S(457)
                     S(458)      C7H9(459)   S(460)      S(461)
                     C7H9O(462)  C6H7(463)   S(464)      S(465)
                     C6H7(466)   C6H6(467)   S(468)      C7H7O(469)
                     S(470)      S(471)      C7H7O(472)  S(473)
                     S(474)      C7H7O(475)  C7H7O(476)  C7H7O(477)
                     S(478)      S(479)      C7H7O(480)  S(481)
                     S(482)      C7H7O(483)  S(484)      C7H7O(485)
                     C7H6O(486)  C7H6O(487)  C7H6O(488)  C7H6O(489)
                     S(490)      C7H6O(491)  S(492)      S(493)
                     C7H7O(494)  S(495)      S(496)      S(497)
                     S(498)      S(499)      S(500)      S(501)
                     S(502)      S(503)      C6H7O(504)  C6H7O(505)
                     S(506)      S(507)      S(508)      S(509)
                     C6H7O(510)  C7H10(511)  S(512)      C6H8O(513)
                     S(514)      C6H6O(515)  S(516)      S(517)
                     S(518)      S(519)      S(520)      S(521)
                     S(522)      S(523)      S(524)      S(525)
                     C7H9(526)   S(527)      S(528)      S(529)
                     S(530)      S(531)      S(532)      S(533)
                     C7H6O(534)  C7H9(535)   S(536)      S(537)
                     S(538)      S(539)      S(540)      S(541)
                     C5H6O(542)  S(543)      S(544)      S(545)
                     S(546)      C7H8O(547)  C7H8O(548)  C7H8O(549)
                     S(550)      C7H8O(551)  C7H8O(552)  S(553)
                     S(554)      S(555)      S(556)      S(557)
                     S(558)      S(559)      C7H8O(560)  C7H8O(561)
                     S(562)      S(563)      C7H8O(564)  S(565)
                     C7H8O(566)  S(567)      S(568)      S(569)
                     S(570)      C7H8O(571)  S(572)      C7H8O(573)
                     C7H8O(574)  C7H8O(575)  C7H8O(576)  C7H8O(577)
                     S(578)      S(579)      S(580)      S(581)
                     C7H8O(582)  S(583)      C7H8O(584)  C7H8O(585)
                     S(586)      C7H8O(587)  C7H8O(588)  S(589)
                     S(590)      C7H8O(591)  S(592)      S(593)
                     S(594)      C7H8O(595)  S(596)      C7H8O(597)
                     S(598)      S(599)      S(600)      S(601)
                     C7H9O(602)  S(603)      S(604)      S(605)
                     C7H9O(606)  S(607)      C7H9O(608)  S(609)
                     S(610)      C7H8O(611)  C7H8O(612)  S(613)
                     C7H8O(614)  S(615)      S(616)      C7H8O(617)
                     S(618)      S(619)      S(620)      S(621)
                     C7H9O(622)  S(623)      S(624)      S(625)
                     C7H8O(626)  S(627)      S(628)      C6H6O(629)
                     C6H6O(630)  S(631)      S(632)      C6H6O(633)
                     S(634)      S(635)      S(636)      C6H7O(637)
                     S(638)      S(639)      S(640)      S(641)
                     S(642)      S(643)      S(644)      S(645)
                     S(646)      S(647)      S(648)      S(649)
                     S(650)      S(651)      S(652)      S(653)
                     S(654)      C7H9O(655)  S(656)      S(657)
                     S(658)      S(659)      S(660)      S(661)
                     S(662)      C5H8O(663)  S(664)      S(665)
                     S(666)      S(667)      S(668)      S(669)
                     S(670)      S(671)      C5H8O(672)  S(673)
                     S(674)      S(675)      S(676)      C7H9O(677)
                     C7H8O(678)  C7H9(679)   C7H9(680)   C7H9(681)
                     S(682)      S(683)      S(684)      S(685)
                     S(686)      S(687)      S(688)      C7H8(689)
                     S(690)      S(691)      C7H8(692)   C7H8(693)
                     S(694)      S(695)      C7H8(696)   S(697)
                     C7H8(698)   S(699)      S(700)      S(701)
                     S(702)      S(703)      S(704)      S(705)
                     S(706)      S(707)      S(708)      S(709)
                     S(710)      S(711)      S(712)      S(713)
                     S(714)      S(715)      S(716)      S(717)
                     S(718)      S(719)      S(720)      S(721)
                     S(722)      S(723)      S(724)      S(725)
                     S(726)      S(727)      S(728)      S(729)
                     S(730)      S(731)      S(732)      S(733)
                     S(734)      S(735)      S(736)      S(737)
                     S(738)      S(739)      S(740)      S(741)
                     S(742)      S(743)      S(744)      S(745)
                     S(746)      S(747)      S(748)      S(749)
                     S(750)      S(751)      S(752)      S(753)
                     S(754)      S(755)      S(756)      S(757)
                     S(758)      S(759)      S(760)      S(761)
                     S(762)      S(763)      S(764)      S(765)
                     S(766)      S(767)      S(768)      S(769)
                     S(770)      S(771)      S(772)      S(773)
                     S(774)      S(775)      S(776)      S(777)
                     S(778)      S(779)      S(780)      S(781)
                     S(782)      S(783)      S(784)      S(785)
                     S(786)      S(787)      S(788)      S(789)
                     S(790)      S(791)      S(792)      S(793)
                     S(794)      S(795)      S(796)      S(797)
                     S(798)      S(799)      C7H6O(800)  S(801)
                     S(802)      S(803)      S(804)      S(805)
                     S(806)      S(807)      S(808)      S(809)
                     S(810)      S(811)      S(812)      S(813)
                     S(814)      S(815)      S(816)      S(817)
                     S(818)      S(819)      S(820)      S(821)
                     S(822)      S(823)      S(824)      S(825)
                     S(826)      S(827)      S(828)      S(829)
                     S(830)      S(831)      S(832)      S(833)
                     S(834)      S(835)      H2CC(836)   C2O(837)
                     S(1131)     S(1255)     S(1258)     S(1507)
                     S(2323)     S(2356)     S(2464)     S(2498)
                     S(2500)     S(5008)     S(6851)     S(6881)
                     S(10652)    S(13843)    S(14028)    S(15544)
                     S(16957)    S(17494)    S(17504)    S(17628)
                     S(25567)    S(25604)    S(25837)    S(25862)
                     S(25863)    S(26355)    S(26458)    S(28402)
                     S(28498)    S(32435)    S(32497)    S(39870)
                     S(39931)    S(42556)    S(43519)    S(44850)
                     S(44984)    S(45020)    S(45040)    S(46833)
                     S(47659)    S(47746)    S(47757)""",
          reactions='all',
          transport='Mix',
          initial_state=state(temperature=300.0, pressure=OneAtm))

#-------------------------------------------------------------------------------
# Element data
#-------------------------------------------------------------------------------

element(symbol=u'X', atomic_mass=195.083)
element(symbol=u'Ci', atomic_mass=13.003)
element(symbol=u'D', atomic_mass=2.014)
element(symbol=u'Oi', atomic_mass=18.0)
element(symbol=u'T', atomic_mass=3.016)
#-------------------------------------------------------------------------------
# Species data
#-------------------------------------------------------------------------------

species(name=u'N2',
        atoms='N:2',
        thermo=(NASA([100.00, 1817.04],
                     [ 3.61262583E+00, -1.00893007E-03,  2.49898478E-06,
                      -1.43375608E-09,  2.58635681E-13, -1.05110288E+03,
                       2.65270376E+00]),
                NASA([1817.04, 5000.00],
                     [ 2.97590177E+00,  1.64141027E-03, -7.19721837E-07,
                       1.25377654E-10, -7.91526282E-15, -1.02584357E+03,
                       5.53756806E+00])),
        transport=gas_transport(geom='linear',
                                diam=3.621,
                                well_depth=97.53,
                                polar=1.76,
                                rot_relax=4.0))

species(name=u'Ne',
        atoms='Ne:1',
        thermo=(NASA([200.00, 1000.00],
                     [ 2.50000000E+00,  0.00000000E+00,  0.00000000E+00,
                       0.00000000E+00,  0.00000000E+00, -7.45375000E+02,
                       3.35532000E+00]),
                NASA([1000.00, 6000.00],
                     [ 2.50000000E+00,  0.00000000E+00,  0.00000000E+00,
                       0.00000000E+00,  0.00000000E+00, -7.45375000E+02,
                       3.35532000E+00])),
        transport=gas_transport(geom='atom',
                                diam=3.758,
                                well_depth=148.6))

species(name=u'Ar(8)',
        atoms='Ar:1',
        thermo=(NASA([100.00, 3459.60],
                     [ 2.50000000E+00,  9.24384602E-15, -1.36779837E-17,
                       6.66184769E-21, -1.00106912E-24, -7.45000000E+02,
                       4.36630363E+00]),
                NASA([3459.60, 5000.00],
                     [ 2.49999999E+00,  9.20455546E-12, -3.58608293E-15,
                       6.15198922E-19, -3.92041801E-23, -7.44999993E+02,
                       4.36630369E+00])),
        transport=gas_transport(geom='atom',
                                diam=3.33,
                                well_depth=136.501))

species(name=u'C7H16(1)',
        atoms='H:16 C:7',
        thermo=(NASA([100.00, 1262.73],
                     [-2.91681405E-03,  7.69373649E-02, -3.48025563E-05,
                       1.86095180E-09,  2.01573617E-12, -2.57829342E+04,
                       3.00312148E+01]),
                NASA([1262.73, 5000.00],
                     [ 1.38377915E+01,  4.85945016E-02, -1.95474548E-05,
                       3.52837178E-09, -2.39064676E-13, -3.05141556E+04,
                      -4.48642836E+01])),
        transport=gas_transport(geom='nonlinear',
                                diam=6.366,
                                well_depth=402.997))

species(name=u'O2(2)(2)',
        atoms='O:2',
        thermo=(NASA([100.00, 1087.71],
                     [ 3.53763686E+00, -1.22827512E-03,  5.36758632E-06,
                      -4.93128124E-09,  1.45955121E-12, -1.03799025E+03,
                       4.67179809E+00]),
                NASA([1087.71, 5000.00],
                     [ 3.16427276E+00,  1.69453634E-03, -8.00335210E-07,
                       1.59029941E-10, -1.14890929E-14, -1.04844563E+03,
                       6.08302733E+00])),
        transport=gas_transport(geom='linear',
                                diam=3.467,
                                well_depth=106.7))

species(name=u'H(3)(3)',
        atoms='H:1',
        thermo=(NASA([100.00, 3459.60],
                     [ 2.50000000E+00,  9.24384602E-15, -1.36779837E-17,
                       6.66184769E-21, -1.00106912E-24,  2.54727081E+04,
                      -4.59566246E-01]),
                NASA([3459.60, 5000.00],
                     [ 2.49999999E+00,  9.20455546E-12, -3.58608293E-15,
                       6.15198922E-19, -3.92041801E-23,  2.54727081E+04,
                      -4.59566192E-01])),
        transport=gas_transport(geom='atom',
                                diam=2.05,
                                well_depth=145.0))

species(name=u'O(4)(4)',
        atoms='O:1',
        thermo=(NASA([100.00, 3459.60],
                     [ 2.50000000E+00,  9.24384602E-15, -1.36779837E-17,
                       6.66184769E-21, -1.00106912E-24,  2.92267216E+04,
                       5.11106770E+00]),
                NASA([3459.60, 5000.00],
                     [ 2.49999999E+00,  9.20455546E-12, -3.58608293E-15,
                       6.15198922E-19, -3.92041801E-23,  2.92267216E+04,
                       5.11106776E+00])),
        transport=gas_transport(geom='atom',
                                diam=2.75,
                                well_depth=80.0))

species(name=u'OH(5)(5)',
        atoms='H:1 O:1',
        thermo=(NASA([100.00, 1005.25],
                     [ 3.48579580E+00,  1.33396761E-03, -4.70043127E-06,
                       5.64379019E-09, -2.06317589E-12,  3.41195703E+03,
                       1.99787688E+00]),
                NASA([1005.25, 5000.00],
                     [ 2.88225261E+00,  1.03868777E-03, -2.35651841E-07,
                       1.40229397E-11,  6.34581421E-16,  3.66956005E+03,
                       5.59053215E+00])),
        transport=gas_transport(geom='linear',
                                diam=2.75,
                                well_depth=80.0))

species(name=u'H2(6)(6)',
        atoms='H:2',
        thermo=(NASA([100.00, 1962.85],
                     [ 3.42253762E+00,  2.86647569E-04, -4.14665826E-07,
                       4.27544171E-10, -9.38109437E-14, -1.02978491E+03,
                      -3.86364834E+00]),
                NASA([1962.85, 5000.00],
                     [ 2.74216175E+00,  5.79573021E-04,  1.97187073E-07,
                      -6.41063082E-11,  4.95980228E-15, -5.52022532E+02,
                       4.14250606E-01])),
        transport=gas_transport(geom='linear',
                                diam=2.833,
                                well_depth=59.7))

species(name=u'H2O(7)(7)',
        atoms='H:2 O:1',
        thermo=(NASA([100.00, 1281.44],
                     [ 3.99882000E+00, -5.54831105E-04,  2.76774252E-06,
                      -1.55664990E-09,  3.02330437E-13, -3.02745569E+04,
                      -3.08942233E-02]),
                NASA([1281.44, 5000.00],
                     [ 3.19560359E+00,  1.95240027E-03, -1.67118352E-07,
                      -2.97938167E-11,  4.45138915E-15, -3.00687022E+04,
                       4.04334565E+00])),
        transport=gas_transport(geom='nonlinear',
                                diam=2.641,
                                well_depth=809.102,
                                polar=1.76,
                                rot_relax=4.0))

species(name=u'He(9)(8)',
        atoms='He:1',
        thermo=(NASA([100.00, 3459.60],
                     [ 2.50000000E+00,  9.24384602E-15, -1.36779837E-17,
                       6.66184769E-21, -1.00106912E-24, -7.45000000E+02,
                       9.14221530E-01]),
                NASA([3459.60, 5000.00],
                     [ 2.49999999E+00,  9.20455546E-12, -3.58608293E-15,
                       6.15198922E-19, -3.92041801E-23, -7.44999993E+02,
                       9.14221584E-01])),
        transport=gas_transport(geom='atom',
                                diam=2.576,
                                well_depth=10.2))

species(name=u'HO2(8)(9)',
        atoms='H:1 O:2',
        thermo=(NASA([100.00, 923.91],
                     [ 4.02955993E+00, -2.63985086E-03,  1.52230248E-05,
                      -1.71671332E-08,  6.26738052E-12,  3.22677279E+02,
                       4.84427984E+00]),
                NASA([923.91, 5000.00],
                     [ 4.15133254E+00,  1.91146014E-03, -4.11274138E-07,
                       6.34956851E-11, -4.86384723E-15,  8.34207514E+01,
                       3.09340719E+00])),
        transport=gas_transport(geom='nonlinear',
                                diam=3.458,
                                well_depth=107.4,
                                rot_relax=1.0))

species(name=u'H2O2(10)',
        atoms='H:2 O:2',
        thermo=(NASA([100.00, 923.27],
                     [ 3.72867429E+00,  4.13372266E-03,  5.67516696E-06,
                      -1.01868353E-08,  4.28624417E-12, -1.76963961E+04,
                       5.35910090E+00]),
                NASA([923.27, 5000.00],
                     [ 4.95150616E+00,  3.54231848E-03, -1.01041910E-06,
                       1.61944794E-10, -1.10211913E-14, -1.81227893E+04,
                      -1.52905314E+00])),
        transport=gas_transport(geom='nonlinear',
                                diam=4.196,
                                well_depth=289.3))

species(name=u'CO(10)(11)',
        atoms='C:1 O:1',
        thermo=(NASA([100.00, 1669.93],
                     [ 3.59709666E+00, -1.02423781E-03,  2.83336350E-06,
                      -1.75825191E-09,  3.42586966E-13, -1.43431899E+04,
                       3.45822175E+00]),
                NASA([1669.93, 5000.00],
                     [ 2.92795649E+00,  1.81930595E-03, -8.35308214E-07,
                       1.51269114E-10, -9.88871766E-15, -1.42927086E+04,
                       6.51156822E+00])),
        transport=gas_transport(geom='linear',
                                diam=3.69,
                                well_depth=91.7,
                                polar=1.76,
                                rot_relax=4.0))

species(name=u'CO2(12)',
        atoms='C:1 O:2',
        thermo=(NASA([100.00, 988.19],
                     [ 3.27790244E+00,  2.75782522E-03,  7.12787107E-06,
                      -1.07854581E-08,  4.14227785E-12, -4.84756031E+04,
                       5.97855846E+00]),
                NASA([988.19, 5000.00],
                     [ 4.55071273E+00,  2.90728244E-03, -1.14643077E-06,
                       2.25797669E-10, -1.69526203E-14, -4.89860093E+04,
                      -1.45662083E+00])),
        transport=gas_transport(geom='linear',
                                diam=3.941,
                                well_depth=195.201))

species(name=u'CHO2(13)',
        atoms='H:1 C:1 O:2',
        thermo=(NASA([200.00, 998.40],
                     [ 2.82191000E+00,  9.66218000E-03, -2.78560000E-06,
                      -4.12692000E-09,  2.61472000E-12, -2.35465000E+04,
                       1.14285000E+01]),
                NASA([998.40, 3000.00],
                     [ 4.63989000E+00,  5.66363000E-03, -2.67855000E-06,
                       6.17049000E-10, -5.60954000E-14, -2.40527000E+04,
                       1.90175000E+00])),
        transport=gas_transport(geom='nonlinear',
                                diam=3.59,
                                well_depth=498.0,
                                rot_relax=2.0))

species(name=u'CH2O(14)',
        atoms='H:2 C:1 O:1',
        thermo=(NASA([200.00, 1000.00],
                     [ 4.79372000E+00, -9.90833000E-03,  3.73220000E-05,
                      -3.79285000E-08,  1.31773000E-11, -1.43792000E+04,
                       6.02798000E-01]),
                NASA([1000.00, 6000.00],
                     [ 3.16953000E+00,  6.19321000E-03, -2.25056000E-06,
                       3.65976000E-10, -2.20149000E-14, -1.45487000E+04,
                       6.04208000E+00])),
        transport=gas_transport(geom='nonlinear',
                                diam=3.59,
                                well_depth=498.002,
                                rot_relax=2.0))

species(name=u'CHO(15)',
        atoms='H:1 C:1 O:1',
        thermo=(NASA([200.00, 1000.00],
                     [ 4.23755000E+00, -3.32075000E-03,  1.40030000E-05,
                      -1.34240000E-08,  4.37416000E-12,  3.87241000E+03,
                       3.30835000E+00]),
                NASA([1000.00, 6000.00],
                     [ 3.92002000E+00,  2.52279000E-03, -6.71004000E-07,
                       1.05616000E-10, -7.43798000E-15,  3.65343000E+03,
                       3.58077000E+00])),
        transport=gas_transport(geom='nonlinear',
                                diam=3.59,
                                well_depth=498.002))

species(name=u'CH3(16)',
        atoms='H:3 C:1',
        thermo=(NASA([200.00, 1000.00],
                     [ 3.65718000E+00,  2.12660000E-03,  5.45839000E-06,
                      -6.61810000E-09,  2.46571000E-12,  1.64227000E+04,
                       1.67354000E+00]),
                NASA([1000.00, 6000.00],
                     [ 2.97812000E+00,  5.79785000E-03, -1.97558000E-06,
                       3.07298000E-10, -1.79174000E-14,  1.65095000E+04,
                       4.72248000E+00])),
        transport=gas_transport(geom='nonlinear',
                                diam=3.8,
                                well_depth=144.001))

species(name=u'CH4(17)',
        atoms='H:4 C:1',
        thermo=(NASA([200.00, 1000.00],
                     [ 5.14826000E+00, -1.37002000E-02,  4.93749000E-05,
                      -4.91952000E-08,  1.70097000E-11, -1.02453000E+04,
                      -4.63323000E+00]),
                NASA([1000.00, 6000.00],
                     [ 1.91179000E+00,  9.60268000E-03, -3.38388000E-06,
                       5.38797000E-10, -3.19307000E-14, -1.00992000E+04,
                       8.48242000E+00])),
        transport=gas_transport(geom='nonlinear',
                                diam=3.746,
                                well_depth=141.4,
                                polar=2.6,
                                rot_relax=13.0))

species(name=u'CH2(18)',
        atoms='H:2 C:1',
        thermo=(NASA([200.00, 1000.00],
                     [ 3.83280000E+00,  2.24446000E-04,  4.68033000E-06,
                      -6.04743000E-09,  2.59009000E-12,  4.59208000E+04,
                       1.40666000E+00]),
                NASA([1000.00, 3000.00],
                     [ 3.16229000E+00,  2.81798000E-03, -7.56235000E-07,
                       5.05446000E-11,  5.65236000E-15,  4.60991000E+04,
                       4.77656000E+00])),
        transport=gas_transport(geom='nonlinear',
                                diam=3.8,
                                well_depth=144.001))

species(name=u'CH(18)(19)',
        atoms='H:1 C:1',
        thermo=(NASA([200.00, 1000.00],
                     [ 3.47159000E+00,  4.04745000E-04, -1.89388000E-06,
                       3.33210000E-09, -1.51271000E-12,  7.07018000E+04,
                       2.14542000E+00]),
                NASA([1000.00, 3000.00],
                     [ 2.66195000E+00,  1.70245000E-03, -6.83824000E-07,
                       1.30980000E-10, -9.71843000E-15,  7.09589000E+04,
                       6.52673000E+00])),
        transport=gas_transport(geom='linear',
                                diam=2.75,
                                well_depth=80.0))
