units(length='cm', time='s', quantity='mol', act_energy='kcal/mol')

ideal_gas(name='gas',
          elements="H D T C Ci O Oi N Ne Ar He Si S Cl X",
          species="""N2          Ar          He          Ne
                     C7H16(1)    CH4(2)      O2(3)       C4H9(4)
                     C3H7(5)     C5H11(6)    C2H5(7)     C7H15(8)
                     H(9)        CH3(12)     C7H15(13)   C7H15(14)
                     HO2(18)     C2H4(19)    CH2(T)(21)  C2H5O2(24)
                     OH(D)(26)   OO(28)      CCOO(30)    S(43)
                     C3H6(45)    C3H7O2(50)  CCCOO(51)   C4H8(53)
                     C4H9O2(58)  C3H7O2(67)  CH2O2(68)   C3H7O(72)
                     CH3O2(83)   C7H14(94)   S(106)      S(107)
                     S(112)      S(129)      S(135)      S(151)
                     S(176)      S(189)      S(220)      S(221)
                     S(226)      S(227)      S(241)      S(256)
                     COO(263)    S(292)      S(311)      S(333)
                     C5H9O(363)  C3H5(366)   H2O(447)    S(477)
                     S(511)      C2H3O(514)  S(584)      C2H4O(662)
                     C3H4(718)   S(722)      S(883)      C3H5O(884)
                     CH2O(980)   S(1133)     S(1138)     S(1139)
                     S(1149)     S(1152)     S(1179)     S(1181)
                     S(1400)     S(1527)     S(1532)     S(1535)
                     S(1540)     S(1556)     S(1899)     S(1909)
                     S(1935)     S(1963)     S(2067)     S(2412)
                     S(2415)     S(2515)     S(2517)     S(2802)
                     S(2805)     S(3133)     S(3304)     S(3439)
                     S(3673)     S(4471)     S(4752)     S(5120)
                     S(6209)     S(6211)     S(6221)     CO2(6888)""",
          reactions='all',
          transport='Mix',
          initial_state=state(temperature=300.0, pressure=OneAtm))

#-------------------------------------------------------------------------------
# Element data
#-------------------------------------------------------------------------------

element(symbol=u'X', atomic_mass=195.083)
element(symbol=u'Ci', atomic_mass=13.003)
element(symbol=u'D', atomic_mass=2.014)
element(symbol=u'Oi', atomic_mass=18.0)
element(symbol=u'T', atomic_mass=3.016)
#-------------------------------------------------------------------------------
# Species data
#-------------------------------------------------------------------------------

species(name=u'N2',
        atoms='N:2',
        thermo=(NASA([200.00, 1000.00],
                     [ 3.53101000E+00, -1.23661000E-04, -5.02999000E-07,
                       2.43531000E-09, -1.40881000E-12, -1.04698000E+03,
                       2.96747000E+00]),
                NASA([1000.00, 6000.00],
                     [ 2.95258000E+00,  1.39690000E-03, -4.92632000E-07,
                       7.86010000E-11, -4.60755000E-15, -9.23949000E+02,
                       5.87189000E+00])),
        transport=gas_transport(geom='linear',
                                diam=3.621,
                                well_depth=97.53,
                                polar=1.76,
                                rot_relax=4.0))

species(name=u'Ar',
        atoms='Ar:1',
        thermo=(NASA([200.00, 1000.00],
                     [ 2.50000000E+00,  0.00000000E+00,  0.00000000E+00,
                       0.00000000E+00,  0.00000000E+00, -7.45375000E+02,
                       4.37967000E+00]),
                NASA([1000.00, 6000.00],
                     [ 2.50000000E+00,  0.00000000E+00,  0.00000000E+00,
                       0.00000000E+00,  0.00000000E+00, -7.45375000E+02,
                       4.37967000E+00])),
        transport=gas_transport(geom='atom',
                                diam=3.33,
                                well_depth=136.501))

species(name=u'He',
        atoms='He:1',
        thermo=(NASA([200.00, 1000.00],
                     [ 2.50000000E+00,  0.00000000E+00,  0.00000000E+00,
                       0.00000000E+00,  0.00000000E+00, -7.45375000E+02,
                       9.28724000E-01]),
                NASA([1000.00, 6000.00],
                     [ 2.50000000E+00,  0.00000000E+00,  0.00000000E+00,
                       0.00000000E+00,  0.00000000E+00, -7.45375000E+02,
                       9.28724000E-01])),
        transport=gas_transport(geom='atom',
                                diam=2.576,
                                well_depth=10.2))

species(name=u'Ne',
        atoms='Ne:1',
        thermo=(NASA([200.00, 1000.00],
                     [ 2.50000000E+00,  0.00000000E+00,  0.00000000E+00,
                       0.00000000E+00,  0.00000000E+00, -7.45375000E+02,
                       3.35532000E+00]),
                NASA([1000.00, 6000.00],
                     [ 2.50000000E+00,  0.00000000E+00,  0.00000000E+00,
                       0.00000000E+00,  0.00000000E+00, -7.45375000E+02,
                       3.35532000E+00])),
        transport=gas_transport(geom='atom',
                                diam=3.758,
                                well_depth=148.6))

species(name=u'C7H16(1)',
        atoms='H:16 C:7',
        thermo=(NASA([100.00, 1262.75],
                     [-2.93512125E-03,  7.69375610E-02, -3.48031525E-05,
                       1.86160506E-09,  2.01550529E-12, -2.57829334E+04,
                       3.00312819E+01]),
                NASA([1262.75, 5000.00],
                     [ 1.38379971E+01,  4.85941816E-02, -1.95472819E-05,
                       3.52833289E-09, -2.39061569E-13, -3.05142526E+04,
                      -4.48654615E+01])),
        transport=gas_transport(geom='nonlinear',
                                diam=6.366,
                                well_depth=402.997))

species(name=u'CH4(2)',
        atoms='H:4 C:1',
        thermo=(NASA([100.00, 1084.15],
                     [ 4.20540072E+00, -5.35540640E-03,  2.51117636E-05,
                      -2.13755910E-08,  5.97496145E-12, -1.01619427E+04,
                      -9.21226951E-01]),
                NASA([1084.15, 5000.00],
                     [ 9.08349401E-01,  1.14539479E-02, -4.57166053E-06,
                       8.29173612E-10, -5.66300105E-14, -9.72001110E+03,
                       1.39926204E+01])),
        transport=gas_transport(geom='nonlinear',
                                diam=3.746,
                                well_depth=141.4,
                                polar=2.6,
                                rot_relax=13.0))

species(name=u'O2(3)',
        atoms='O:2',
        thermo=(NASA([100.00, 1074.56],
                     [ 3.53732118E+00, -1.21570207E-03,  5.31615377E-06,
                      -4.89440387E-09,  1.45843816E-12, -1.03858843E+03,
                       4.68368631E+00]),
                NASA([1074.56, 5000.00],
                     [ 3.15382772E+00,  1.67803228E-03, -7.69967779E-07,
                       1.51273960E-10, -1.08781182E-14, -1.04082030E+03,
                       6.16751919E+00])),
        transport=gas_transport(geom='linear',
                                diam=3.467,
                                well_depth=106.7))

species(name=u'C4H9(4)',
        atoms='H:9 C:4',
        thermo=(NASA([100.00, 1048.10],
                     [ 2.34849427E+00,  2.91322489E-02,  9.83700950E-06,
                      -2.60513494E-08,  1.01154079E-11,  7.39526498E+03,
                       1.73201415E+01]),
                NASA([1048.10, 5000.00],
                     [ 7.21567534E+00,  2.70037735E-02, -1.06547814E-05,
                       1.95473415E-09, -1.35978997E-13,  5.47165560E+03,
                      -1.06993170E+01])),
        transport=gas_transport(geom='nonlinear',
                                diam=5.176,
                                well_depth=357.002,
                                rot_relax=1.0))

species(name=u'C3H7(5)',
        atoms='H:7 C:3',
        thermo=(NASA([100.00, 995.41],
                     [ 3.09190651E+00,  1.32173255E-02,  2.75844789E-05,
                      -3.90845188E-08,  1.43311730E-11,  1.02284120E+04,
                       1.24058105E+01]),
                NASA([995.41, 5000.00],
                     [ 5.69433594E+00,  1.96032958E-02, -7.42047085E-06,
                       1.35882351E-09, -9.56209871E-14,  8.87583725E+03,
                      -4.32904614E+00])),
        transport=gas_transport(geom='nonlinear',
                                diam=4.982,
                                well_depth=266.801,
                                rot_relax=1.0))

species(name=u'C5H11(6)',
        atoms='H:11 C:5',
        thermo=(NASA([100.00, 1123.46],
                     [ 1.58665753E+00,  4.52266357E-02, -8.34996586E-06,
                      -1.27363004E-08,  5.90990524E-12,  4.56295629E+03,
                       2.23029668E+01]),
                NASA([1123.46, 5000.00],
                     [ 9.06518530E+00,  3.38790296E-02, -1.35993712E-05,
                       2.48443706E-09, -1.70982540E-13,  1.91835838E+03,
                      -1.89385735E+01])),
        transport=gas_transport(geom='nonlinear',
                                diam=5.734,
                                well_depth=367.022))

species(name=u'C2H5(7)',
        atoms='H:5 C:2',
        thermo=(NASA([100.00, 900.32],
                     [ 3.82181475E+00, -3.43333761E-03,  5.09247147E-05,
                      -6.20197238E-08,  2.37066621E-11,  1.30660138E+04,
                       7.61650868E+00]),
                NASA([900.32, 5000.00],
                     [ 5.15626544E+00,  9.43112567E-03, -1.81940084E-06,
                       2.21181548E-10, -1.43469340E-14,  1.20640599E+04,
                      -2.91130333E+00])),
        transport=gas_transport(geom='nonlinear',
                                diam=4.302,
                                well_depth=252.301,
                                rot_relax=1.5))

species(name=u'C7H15(8)',
        atoms='H:15 C:7',
        thermo=(NASA([100.00, 2507.38],
                     [ 8.69628678E-01,  7.03717861E-02, -3.49834782E-05,
                       7.97988250E-09, -7.11975457E-13, -2.43792423E+03,
                       3.01351390E+01]),
                NASA([2507.38, 5000.00],
                     [ 2.36823415E+01,  3.39797219E-02, -1.32130127E-05,
                       2.19164661E-09, -1.34868918E-13, -1.38782176E+04,
                      -1.00893864E+02])),
        transport=gas_transport(geom='nonlinear',
                                diam=6.366,
                                well_depth=402.997))

species(name=u'H(9)',
        atoms='H:1',
        thermo=(NASA([100.00, 4383.16],
                     [ 2.50000000E+00, -2.38914167E-13,  3.12709494E-16,
                      -1.33367320E-19,  1.74989654E-23,  2.54742178E+04,
                      -4.44972897E-01]),
                NASA([4383.16, 5000.00],
                     [ 2.50003447E+00, -3.04996987E-08,  1.01101187E-11,
                      -1.48796738E-15,  8.20356170E-20,  2.54741866E+04,
                      -4.45191184E-01])),
        transport=gas_transport(geom='atom',
                                diam=2.05,
                                well_depth=145.0))

species(name=u'CH3(12)',
        atoms='H:3 C:1',
        thermo=(NASA([100.00, 1337.60],
                     [ 3.91547172E+00,  1.84150036E-03,  3.48754307E-06,
                      -3.32760761E-09,  8.50001225E-13,  1.62856392E+04,
                       3.51726326E-01]),
                NASA([1337.60, 5000.00],
                     [ 3.54139740E+00,  4.76795979E-03, -1.82153283E-06,
                       3.28887372E-10, -2.22554124E-14,  1.62239871E+04,
                       1.66069535E+00])),
        transport=gas_transport(geom='nonlinear',
                                diam=3.8,
                                well_depth=144.001))

species(name=u'C7H15(13)',
        atoms='H:15 C:7',
        thermo=(NASA([100.00, 2217.88],
                     [ 6.30264060E-01,  7.21853699E-02, -3.74649573E-05,
                       9.23897781E-09, -9.12000374E-13, -2.42761904E+03,
                       3.11735842E+01]),
                NASA([2217.88, 5000.00],
                     [ 1.86862763E+01,  3.96208733E-02, -1.54408575E-05,
                       2.61880323E-09, -1.65771605E-13, -1.04368220E+04,
                      -7.03187622E+01])),
        transport=gas_transport(geom='nonlinear',
                                diam=6.366,
                                well_depth=402.997))

species(name=u'C7H15(14)',
        atoms='H:15 C:7',
        thermo=(NASA([100.00, 1942.10],
                     [-2.36937650E-02,  7.80769454E-02, -4.55284391E-05,
                       1.31111477E-08, -1.52703547E-12, -1.09702257E+03,
                       3.26059970E+01]),
                NASA([1942.10, 5000.00],
                     [ 1.94310768E+01,  3.80067074E-02, -1.45792697E-05,
                       2.48701329E-09, -1.59403070E-13, -8.65351572E+03,
                      -7.41651838E+01])),
        transport=gas_transport(geom='nonlinear',
                                diam=6.366,
                                well_depth=402.997))

species(name=u'HO2(18)',
        atoms='H:1 O:2',
        thermo=(NASA([100.00, 932.15],
                     [ 4.04594670E+00, -1.73467031E-03,  1.03767356E-05,
                      -1.02203681E-08,  3.34913847E-12, -9.86754322E+02,
                       4.63580649E+00]),
                NASA([932.15, 5000.00],
                     [ 3.21023300E+00,  3.67942960E-03, -1.27702140E-06,
                       2.18046617E-10, -1.46339071E-14, -9.10366224E+02,
                       8.18295003E+00])),
        transport=gas_transport(geom='nonlinear',
                                diam=3.458,
                                well_depth=107.4,
                                rot_relax=1.0))

species(name=u'C2H4(19)',
        atoms='H:4 C:2',
        thermo=(NASA([100.00, 940.44],
                     [ 3.97977798E+00, -7.57601265E-03,  5.52988535E-05,
                      -6.36242698E-08,  2.31776676E-11,  5.07745943E+03,
                       4.04610841E+00]),
                NASA([940.44, 5000.00],
                     [ 5.20288729E+00,  7.82460951E-03, -2.12694216E-06,
                       3.79716339E-10, -2.94692264E-14,  3.93632496E+03,
                      -6.62351132E+00])),
        transport=gas_transport(geom='nonlinear',
                                diam=3.971,
                                well_depth=280.801,
                                rot_relax=1.5))

species(name=u'CH2(T)(21)',
        atoms='H:2 C:1',
        thermo=(NASA([100.00, 1104.62],
                     [ 4.01192382E+00, -1.54978221E-04,  3.26297694E-06,
                      -2.40421703E-09,  5.69496393E-13,  4.58676802E+04,
                       5.33200695E-01]),
                NASA([1104.62, 5000.00],
                     [ 3.14983364E+00,  2.96674300E-03, -9.76056091E-07,
                       1.54115339E-10, -9.50338624E-15,  4.60581391E+04,
                       4.77807794E+00])),
        transport=gas_transport(geom='nonlinear',
                                diam=3.8,
                                well_depth=144.001))

species(name=u'C2H5O2(24)',
        atoms='H:5 C:2 O:2',
        thermo=(NASA([100.00, 1095.57],
                     [ 2.80473792E+00,  2.78957477E-02, -1.90392545E-05,
                       7.91891644E-09, -1.55077558E-12, -3.93470054E+03,
                       1.36321046E+01]),
                NASA([1095.57, 5000.00],
                     [ 4.87876152E+00,  2.03232431E-02, -8.67121460E-06,
                       1.60976054E-09, -1.11058602E-13, -4.38914188E+03,
                       3.43686220E+00])),
        transport=gas_transport(geom='nonlinear',
                                diam=4.037,
                                well_depth=395.0,
                                dipole=1.3,
                                rot_relax=1.0))

species(name=u'OH(D)(26)',
        atoms='H:1 O:1',
        thermo=(NASA([100.00, 1145.76],
                     [ 3.51456841E+00,  2.92731942E-05, -5.32149835E-07,
                       1.01947431E-09, -3.85939061E-13,  3.41425418E+03,
                       2.10434749E+00]),
                NASA([1145.76, 5000.00],
                     [ 3.07193709E+00,  6.04020086E-04, -1.39807303E-08,
                      -2.13440498E-11,  2.48061111E-15,  3.57938799E+03,
                       4.57801556E+00])),
        transport=gas_transport(geom='linear',
                                diam=2.75,
                                well_depth=80.0))

species(name=u'OO(28)',
        atoms='H:2 O:2',
        thermo=(NASA([100.00, 908.87],
                     [ 3.73136126E+00,  3.35066898E-03,  9.35048235E-06,
                      -1.52101743E-08,  6.41595118E-12, -1.77211710E+04,
                       5.45909689E+00]),
                NASA([908.87, 5000.00],
                     [ 5.41577885E+00,  2.61009583E-03, -4.39900542E-07,
                       4.91108076E-11, -3.35205823E-15, -1.83029490E+04,
                      -4.02243570E+00])),
        transport=gas_transport(geom='nonlinear',
                                diam=4.196,
                                well_depth=289.3))

species(name=u'CCOO(30)',
        atoms='H:6 C:2 O:2',
        thermo=(NASA([100.00, 1748.24],
                     [ 2.36484853E+00,  3.35063995E-02, -2.10185803E-05,
                       6.57792327E-09, -8.43695279E-13, -2.21976612E+04,
                       1.44538343E+01]),
                NASA([1748.24, 5000.00],
                     [ 9.45936851E+00,  1.72739070E-02, -7.09090361E-06,
                       1.26676039E-09, -8.41881873E-14, -2.46782273E+04,
                      -2.37361371E+01])),
        transport=gas_transport(geom='nonlinear',
                                diam=4.037,
                                well_depth=395.0,
                                dipole=1.3,
                                rot_relax=1.0))

species(name=u'S(43)',
        atoms='H:11 C:5 O:2',
        thermo=(NASA([100.00, 1056.24],
                     [ 9.50446520E-01,  7.11904168E-02, -5.67145286E-05,
                       2.69632055E-08, -5.75199010E-12, -1.24503310E+04,
                       2.70284796E+01]),
                NASA([1056.24, 5000.00],
                     [ 7.78234918E+00,  4.53180140E-02, -1.99725007E-05,
                       3.77287358E-09, -2.63131093E-13, -1.38935644E+04,
                      -6.30534808E+00])),
        transport=gas_transport(geom='nonlinear',
                                diam=6.654,
                                well_depth=454.766))

species(name=u'C3H6(45)',
        atoms='H:6 C:3',
        thermo=(NASA([100.00, 988.02],
                     [ 3.30972318E+00,  8.27549406E-03,  3.37696509E-05,
                      -4.39282678E-08,  1.58761269E-11,  7.67477662E+02,
                       9.64366715E+00]),
                NASA([988.02, 5000.00],
                     [ 5.41223275E+00,  1.72862724E-02, -6.51340254E-06,
                       1.20318224E-09, -8.55887508E-14, -5.03256056E+02,
                      -4.80259391E+00])),
        transport=gas_transport(geom='nonlinear',
                                diam=4.982,
                                well_depth=266.801,
                                rot_relax=1.0))

species(name=u'C3H7O2(50)',
        atoms='H:7 C:3 O:2',
        thermo=(NASA([100.00, 1069.45],
                     [ 2.18579543E+00,  4.23352499E-02, -3.16174550E-05,
                       1.42840388E-08, -2.95575597E-12, -6.77320189E+03,
                       1.81007481E+01]),
                NASA([1069.45, 5000.00],
                     [ 5.84048573E+00,  2.86658485E-02, -1.24449138E-05,
                       2.33240310E-09, -1.61885415E-13, -7.55490466E+03,
                       2.23582630E-01])),
        transport=gas_transport(geom='nonlinear',
                                diam=6.025,
                                well_depth=420.255))

species(name=u'CCCOO(51)',
        atoms='H:8 C:3 O:2',
        thermo=(NASA([100.00, 1539.01],
                     [ 1.82539038E+00,  4.71568575E-02, -3.14307715E-05,
                       1.08036755E-08, -1.55943540E-12, -2.50400266E+04,
                       1.86261210E+01]),
                NASA([1539.01, 5000.00],
                     [ 9.78305055E+00,  2.64743908E-02, -1.12726274E-05,
                       2.07162495E-09, -1.40988109E-13, -2.74894194E+04,
                      -2.31958792E+01])),
        transport=gas_transport(geom='nonlinear',
                                diam=6.025,
                                well_depth=420.255))

species(name=u'C4H8(53)',
        atoms='H:8 C:4',
        thermo=(NASA([100.00, 991.80],
                     [ 2.64173967E+00,  2.03702254E-02,  3.05808911E-05,
                      -4.85556778E-08,  1.85230626E-11, -1.92980809E+03,
                       1.49537357E+01]),
                NASA([991.80, 5000.00],
                     [ 7.80836341E+00,  2.29240952E-02, -8.65885539E-06,
                       1.60050131E-09, -1.13876837E-13, -4.10510818E+03,
                      -1.57295249E+01])),
        transport=gas_transport(geom='nonlinear',
                                diam=5.176,
                                well_depth=357.002,
                                rot_relax=1.0))

species(name=u'C4H9O2(58)',
        atoms='H:9 C:4 O:2',
        thermo=(NASA([100.00, 1060.67],
                     [ 1.56798444E+00,  5.67641208E-02, -4.41692070E-05,
                       2.06263955E-08, -4.35461719E-12, -9.61175967E+03,
                       2.25651278E+01]),
                NASA([1060.67, 5000.00],
                     [ 6.81044965E+00,  3.69936746E-02, -1.62097552E-05,
                       3.05289350E-09, -2.12529904E-13, -1.07238617E+04,
                      -3.03550721E+00])),
        transport=gas_transport(geom='nonlinear',
                                diam=6.34,
                                well_depth=437.585))

species(name=u'C3H7O2(67)',
        atoms='H:7 C:3 O:2',
        thermo=(NASA([100.00, 1192.55],
                     [ 1.99715581E+00,  4.62564506E-02, -3.60950019E-05,
                       1.56681790E-08, -2.95977472E-12, -3.62801452E+02,
                       1.98016964E+01]),
                NASA([1192.55, 5000.00],
                     [ 7.65488488E+00,  2.72796115E-02, -1.22258564E-05,
                       2.32475301E-09, -1.62538797E-13, -1.71223159E+03,
                      -8.48988902E+00])),
        transport=gas_transport(geom='nonlinear',
                                diam=6.025,
                                well_depth=420.255))

species(name=u'CH2O2(68)',
        atoms='H:2 C:1 O:2',
        thermo=(NASA([100.00, 865.70],
                     [ 3.38991971E+00,  1.47957334E-02, -1.79900615E-05,
                       1.54056249E-08, -5.43740162E-12,  2.41030559E+04,
                       9.19554710E+00]),
                NASA([865.70, 5000.00],
                     [ 3.82255211E+00,  9.80118661E-03, -4.14555601E-06,
                       7.46969861E-10, -4.99018555E-14,  2.41403977E+04,
                       7.81904827E+00])),
        transport=gas_transport(geom='nonlinear',
                                diam=5.391,
                                well_depth=384.897))

species(name=u'C3H7O(72)',
        atoms='H:7 C:3 O:1',
        thermo=(NASA([100.00, 1846.94],
                     [ 2.98144969E+00,  2.58769429E-02, -6.11073120E-06,
                      -1.86582100E-09,  6.89802740E-13, -6.53886428E+03,
                       1.45918980E+01]),
                NASA([1846.94, 5000.00],
                     [ 8.91657926E+00,  2.12187128E-02, -8.98371098E-06,
                       1.57379051E-09, -1.00990432E-13, -1.01290963E+04,
                      -2.14673218E+01])),
        transport=gas_transport(geom='nonlinear',
                                diam=5.826,
                                well_depth=402.352))

species(name=u'CH3O2(83)',
        atoms='H:3 C:1 O:2',
        thermo=(NASA([100.00, 2096.21],
                     [ 3.66590177E+00,  1.04794063E-02, -2.30383069E-06,
                      -5.38682993E-10,  1.86904047E-13,  5.48716646E+02,
                       8.70200404E+00]),
                NASA([2096.21, 5000.00],
                     [ 6.47633711E+00,  8.47739562E-03, -3.27620959E-06,
                       5.35431778E-10, -3.24180953E-14, -1.36793572E+03,
                      -8.69808714E+00])),
        transport=gas_transport(geom='nonlinear',
                                diam=3.69,
                                well_depth=417.0,
                                dipole=1.7,
                                rot_relax=2.0))

species(name=u'C7H14(94)',
        atoms='H:14 C:7',
        thermo=(NASA([100.00, 1137.87],
                     [ 3.76999686E-01,  6.84581195E-02, -2.35459181E-05,
                      -8.78914458E-09,  5.80697909E-12, -1.04276840E+04,
                       2.98245670E+01]),
                NASA([1137.87, 5000.00],
                     [ 1.29448850E+01,  4.42102035E-02, -1.78572550E-05,
                       3.27299987E-09, -2.25635415E-13, -1.45781759E+04,
                      -3.81015807E+01])),
        transport=gas_transport(geom='nonlinear',
                                diam=6.166,
                                well_depth=403.036))

species(name=u'S(106)',
        atoms='H:15 C:7 O:2',
        thermo=(NASA([100.00, 1218.12],
                     [-3.85644660E-01,  9.92146228E-02, -7.63201772E-05,
                       3.28022523E-08, -6.09817819E-12, -1.96421090E+04,
                       3.59581359E+01]),
                NASA([1218.12, 5000.00],
                     [ 1.23289723E+01,  5.74631268E-02, -2.49072810E-05,
                       4.66448857E-09, -3.23359480E-13, -2.27397031E+04,
                      -2.78912795E+01])),
        transport=gas_transport(geom='nonlinear',
                                diam=7.309,
                                well_depth=491.023))

species(name=u'S(107)',
        atoms='H:16 C:7 O:2',
        thermo=(NASA([100.00, 1376.17],
                     [-7.70489747E-01,  1.04279312E-01, -7.68135101E-05,
                       3.00291324E-08, -4.94984930E-12, -3.79077231E+04,
                       3.65747521E+01]),
                NASA([1376.17, 5000.00],
                     [ 1.58740068E+01,  5.58991882E-02, -2.40790445E-05,
                       4.48215005E-09, -3.08802654E-13, -4.24887659E+04,
                      -4.90396594E+01])),
        transport=gas_transport(geom='nonlinear',
                                diam=7.309,
                                well_depth=491.023))

species(name=u'S(112)',
        atoms='H:15 C:7 O:2',
        thermo=(NASA([100.00, 928.73],
                     [-2.55683968E-01,  1.01249272E-01, -8.68575689E-05,
                       4.64728510E-08, -1.13579977E-11, -1.45447129E+04,
                       3.73241370E+01]),
                NASA([928.73, 5000.00],
                     [ 7.89068310E+00,  6.61628895E-02, -3.01887075E-05,
                       5.79407678E-09, -4.07786472E-13, -1.60578537E+04,
                      -1.37497833E+00])),
        transport=gas_transport(geom='nonlinear',
                                diam=7.309,
                                well_depth=491.023))

species(name=u'S(129)',
        atoms='H:15 C:7 O:1',
        thermo=(NASA([100.00, 1640.09],
                     [-4.47158670E-01,  8.91509774E-02, -5.88190106E-05,
                       1.98848114E-08, -2.76336154E-12, -1.88065998E+04,
                       3.44797206E+01]),
                NASA([1640.09, 5000.00],
                     [ 1.80490969E+01,  4.40406077E-02, -1.75617658E-05,
                       3.11448396E-09, -2.07047963E-13, -2.48737009E+04,
                      -6.39050527E+01])),
        transport=gas_transport(geom='nonlinear',
                                diam=7.112,
                                well_depth=473.787))

species(name=u'S(135)',
        atoms='H:11 C:5 O:2',
        thermo=(NASA([100.00, 763.03],
                     [ 8.05462701E-01,  7.58165680E-02, -7.39106937E-05,
                       4.90737506E-08, -1.49598449E-11, -7.34211495E+03,
                       2.95333343E+01]),
                NASA([763.03, 5000.00],
                     [ 5.77386895E+00,  4.97716256E-02, -2.27117537E-05,
                       4.34198717E-09, -3.04287674E-13, -8.10034464E+03,
                       6.90725283E+00])),
        transport=gas_transport(geom='nonlinear',
                                diam=6.654,
                                well_depth=454.766))

species(name=u'S(151)',
        atoms='H:9 C:4 O:2',
        thermo=(NASA([100.00, 485.28],
                     [ 1.95817450E+00,  5.28384541E-02, -1.62119530E-05,
                      -5.24154326E-08,  5.55562226E-11, -4.52650517E+03,
                       2.32676742E+01]),
                NASA([485.28, 5000.00],
                     [ 4.83967504E+00,  4.14028611E-02, -1.89326425E-05,
                       3.61988166E-09, -2.53625479E-13, -4.95118511E+03,
                       9.95538319E+00])),
        transport=gas_transport(geom='nonlinear',
                                diam=6.34,
                                well_depth=437.585))

species(name=u'S(176)',
        atoms='H:9 C:4 O:4',
        thermo=(NASA([100.00, 811.42],
                     [ 1.07265965E-01,  9.17983339E-02, -1.11101555E-04,
                       7.88484552E-08, -2.33908905E-11, -2.17052857E+04,
                       3.09373838E+01]),
                NASA([811.42, 5000.00],
                     [ 1.01318140E+01,  4.23809025E-02, -1.97477160E-05,
                       3.79150405E-09, -2.65647553E-13, -2.33321053E+04,
                      -1.53304160E+01])),
        transport=gas_transport(geom='nonlinear',
                                diam=7.265,