units(length='cm', time='s', quantity='mol', act_energy='kcal/mol')

ideal_gas(name='gas',
          elements="H D T C Ci O Oi N Ne Ar He Si S Cl X",
          species="""N2          Ar          He          Ne
                     C7H10(1)    C7H16(2)    O2(3)       C7H9(6)
                     C7H10(19)   C7H10(22)   C4H9(23)    C7H15(31)
                     C7H15(32)   C7H11(35)   HO2(39)     C7H8(65)
                     C7H11(73)   C7H10(75)   C7H9O2(79)  C7H9O2(80)
                     S(81)       S(95)       C7H11O(96)  S(122)
                     C2H4(128)   C7H10(159)  C7H10(166)  C5H7(205)
                     C7H10(233)  S(253)      S(254)      S(258)
                     C7H8(301)   OH(D)(303)  S(366)      S(367)
                     S(415)      S(426)      S(427)      S(739)
                     H2O(757)    OO(807)     S(810)      S(866)
                     S(870)      S(873)      S(894)      S(931)
                     S(941)      C3H6(1193)  S(1207)     S(1232)
                     S(1265)     S(1266)""",
          reactions='all',
          transport='Mix',
          initial_state=state(temperature=300.0, pressure=OneAtm))

#-------------------------------------------------------------------------------
# Element data
#-------------------------------------------------------------------------------

element(symbol=u'X', atomic_mass=195.083)
element(symbol=u'Ci', atomic_mass=13.003)
element(symbol=u'D', atomic_mass=2.014)
element(symbol=u'Oi', atomic_mass=18.0)
element(symbol=u'T', atomic_mass=3.016)
#-------------------------------------------------------------------------------
# Species data
#-------------------------------------------------------------------------------

species(name=u'N2',
        atoms='N:2',
        thermo=(NASA([200.00, 1000.00],
                     [ 3.53101000E+00, -1.23661000E-04, -5.02999000E-07,
                       2.43531000E-09, -1.40881000E-12, -1.04698000E+03,
                       2.96747000E+00]),
                NASA([1000.00, 6000.00],
                     [ 2.95258000E+00,  1.39690000E-03, -4.92632000E-07,
                       7.86010000E-11, -4.60755000E-15, -9.23949000E+02,
                       5.87189000E+00])),
        transport=gas_transport(geom='linear',
                                diam=3.621,
                                well_depth=97.53,
                                polar=1.76,
                                rot_relax=4.0))

species(name=u'Ar',
        atoms='Ar:1',
        thermo=(NASA([200.00, 1000.00],
                     [ 2.50000000E+00,  0.00000000E+00,  0.00000000E+00,
                       0.00000000E+00,  0.00000000E+00, -7.45375000E+02,
                       4.37967000E+00]),
                NASA([1000.00, 6000.00],
                     [ 2.50000000E+00,  0.00000000E+00,  0.00000000E+00,
                       0.00000000E+00,  0.00000000E+00, -7.45375000E+02,
                       4.37967000E+00])),
        transport=gas_transport(geom='atom',
                                diam=3.33,
                                well_depth=136.501))

species(name=u'He',
        atoms='He:1',
        thermo=(NASA([200.00, 1000.00],
                     [ 2.50000000E+00,  0.00000000E+00,  0.00000000E+00,
                       0.00000000E+00,  0.00000000E+00, -7.45375000E+02,
                       9.28724000E-01]),
                NASA([1000.00, 6000.00],
                     [ 2.50000000E+00,  0.00000000E+00,  0.00000000E+00,
                       0.00000000E+00,  0.00000000E+00, -7.45375000E+02,
                       9.28724000E-01])),
        transport=gas_transport(geom='atom',
                                diam=2.576,
                                well_depth=10.2))

species(name=u'Ne',
        atoms='Ne:1',
        thermo=(NASA([200.00, 1000.00],
                     [ 2.50000000E+00,  0.00000000E+00,  0.00000000E+00,
                       0.00000000E+00,  0.00000000E+00, -7.45375000E+02,
                       3.35532000E+00]),
                NASA([1000.00, 6000.00],
                     [ 2.50000000E+00,  0.00000000E+00,  0.00000000E+00,
                       0.00000000E+00,  0.00000000E+00, -7.45375000E+02,
                       3.35532000E+00])),
        transport=gas_transport(geom='atom',
                                diam=3.758,
                                well_depth=148.6))

species(name=u'C7H10(1)',
        atoms='H:10 C:7',
        thermo=(NASA([100.00, 987.48],
                     [ 8.15066103E-01,  5.42246403E-02,  7.00713538E-06,
                      -4.80536609E-08,  2.21789780E-11,  8.89061378E+03,
                       7.61923423E+00]),
                NASA([987.48, 5000.00],
                     [ 1.63155700E+01,  2.86277169E-02, -1.06043899E-05,
                       1.97594338E-09, -1.42756911E-13,  4.01602565E+03,
                      -7.61478689E+01])),
        transport=gas_transport(geom='nonlinear',
                                diam=6.556,
                                well_depth=464.59))

species(name=u'C7H16(2)',
        atoms='H:16 C:7',
        thermo=(NASA([100.00, 1262.75],
                     [-2.93512125E-03,  7.69375610E-02, -3.48031525E-05,
                       1.86160506E-09,  2.01550529E-12, -2.57829334E+04,
                       3.00312819E+01]),
                NASA([1262.75, 5000.00],
                     [ 1.38379971E+01,  4.85941816E-02, -1.95472819E-05,
                       3.52833289E-09, -2.39061569E-13, -3.05142526E+04,
                      -4.48654615E+01])),
        transport=gas_transport(geom='nonlinear',
                                diam=6.366,
                                well_depth=402.997))

species(name=u'O2(3)',
        atoms='O:2',
        thermo=(NASA([100.00, 1074.56],
                     [ 3.53732118E+00, -1.21570207E-03,  5.31615377E-06,
                      -4.89440387E-09,  1.45843816E-12, -1.03858843E+03,
                       4.68368631E+00]),
                NASA([1074.56, 5000.00],
                     [ 3.15382772E+00,  1.67803228E-03, -7.69967779E-07,
                       1.51273960E-10, -1.08781182E-14, -1.04082030E+03,
                       6.16751919E+00])),
        transport=gas_transport(geom='linear',
                                diam=3.467,
                                well_depth=106.7))

species(name=u'C7H9(6)',
        atoms='H:9 C:7',
        thermo=(NASA([100.00, 904.50],
                     [ 2.50941720E+00, -3.50104035E-02,  3.30123500E-04,
                      -4.45706949E-07,  1.81708023E-10,  2.32183786E+04,
                       2.13605404E+01]),
                NASA([904.50, 5000.00],
                     [ 4.05531011E+01, -2.69698211E-02,  2.44444718E-05,
                      -4.92848959E-09,  3.21538011E-13,  9.12532523E+03,
                      -1.98221381E+02])),
        transport=gas_transport(geom='nonlinear',
                                diam=6.556,
                                well_depth=464.59))

species(name=u'C7H10(19)',
        atoms='H:10 C:7',
        thermo=(NASA([100.00, 978.36],
                     [ 9.92991563E-01,  5.25502948E-02,  3.92273573E-06,
                      -4.15538646E-08,  1.95233271E-11,  3.89113768E+04,
                       2.86567055E+01]),
                NASA([978.36, 5000.00],
                     [ 1.42852622E+01,  3.02044241E-02, -1.08771576E-05,
                       1.96082218E-09, -1.38209129E-13,  3.47789730E+04,
                      -4.30067434E+01])),
        transport=gas_transport(geom='nonlinear',
                                diam=6.11,
                                well_depth=423.308))

species(name=u'C7H10(22)',
        atoms='H:10 C:7',
        thermo=(NASA([100.00, 980.31],
                     [ 2.24108318E+00,  1.62127179E-02,  1.00987606E-04,
                      -1.34166019E-07,  4.97854951E-11,  1.85723950E+04,
                       1.55474420E+01]),
                NASA([980.31, 5000.00],
                     [ 1.19834054E+01,  3.34724020E-02, -1.26568906E-05,
                       2.44330832E-09, -1.81802112E-13,  1.39228550E+04,
                      -4.52321919E+01])),
        transport=gas_transport(geom='nonlinear',
                                diam=6.443,
                                well_depth=448.04))

species(name=u'C4H9(23)',
        atoms='H:9 C:4',
        thermo=(NASA([100.00, 1048.10],
                     [ 2.34849427E+00,  2.91322489E-02,  9.83700950E-06,
                      -2.60513494E-08,  1.01154079E-11,  7.39526498E+03,
                       1.73201415E+01]),
                NASA([1048.10, 5000.00],
                     [ 7.21567534E+00,  2.70037735E-02, -1.06547814E-05,
                       1.95473415E-09, -1.35978997E-13,  5.47165560E+03,
                      -1.06993170E+01])),
        transport=gas_transport(geom='nonlinear',
                                diam=5.176,
                                well_depth=357.002,
                                rot_relax=1.0))

species(name=u'C7H15(31)',
        atoms='H:15 C:7',
        thermo=(NASA([100.00, 2217.88],
                     [ 6.30264060E-01,  7.21853699E-02, -3.74649573E-05,
                       9.23897781E-09, -9.12000374E-13, -2.42761904E+03,
                       3.11735842E+01]),
                NASA([2217.88, 5000.00],
                     [ 1.86862763E+01,  3.96208733E-02, -1.54408575E-05,
                       2.61880323E-09, -1.65771605E-13, -1.04368220E+04,
                      -7.03187622E+01])),
        transport=gas_transport(geom='nonlinear',
                                diam=6.366,
                                well_depth=402.997))

species(name=u'C7H15(32)',
        atoms='H:15 C:7',
        thermo=(NASA([100.00, 1942.10],
                     [-2.36937650E-02,  7.80769454E-02, -4.55284391E-05,
                       1.31111477E-08, -1.52703547E-12, -1.09702257E+03,
                       3.26059970E+01]),
                NASA([1942.10, 5000.00],
                     [ 1.94310768E+01,  3.80067074E-02, -1.45792697E-05,
                       2.48701329E-09, -1.59403070E-13, -8.65351572E+03,
                      -7.41651838E+01])),
        transport=gas_transport(geom='nonlinear',
                                diam=6.366,
                                well_depth=402.997))

species(name=u'C7H11(35)',
        atoms='H:11 C:7',
        thermo=(NASA([100.00, 909.15],
                     [ 1.97773015E+00, -1.65221171E-02,  2.81767883E-04,
                      -3.88956940E-07,  1.58900040E-10,  1.43366361E+04,
                       2.16081828E+01]),
                NASA([909.15, 5000.00],
                     [ 3.75857367E+01, -1.47854880E-02,  1.75568321E-05,
                      -3.57361740E-09,  2.28620005E-13,  1.31565820E+03,
                      -1.82791093E+02])),
        transport=gas_transport(geom='nonlinear',
                                diam=6.773,
                                well_depth=463.423))

species(name=u'HO2(39)',
        atoms='H:1 O:2',
        thermo=(NASA([100.00, 932.15],
                     [ 4.04594670E+00, -1.73467031E-03,  1.03767356E-05,
                      -1.02203681E-08,  3.34913847E-12, -9.86754322E+02,
                       4.63580649E+00]),
                NASA([932.15, 5000.00],
                     [ 3.21023300E+00,  3.67942960E-03, -1.27702140E-06,
                       2.18046617E-10, -1.46339071E-14, -9.10366224E+02,
                       8.18295003E+00])),
        transport=gas_transport(geom='nonlinear',
                                diam=3.458,
                                well_depth=107.4,
                                rot_relax=1.0))

species(name=u'C7H8(65)',
        atoms='H:8 C:7',
        thermo=(NASA([100.00, 948.56],
                     [ 9.76266400E-01,  4.70652860E-02,  2.43893946E-05,
                      -7.34678005E-08,  3.37231009E-11,  2.00320503E+04,
                       1.71407476E+01]),
                NASA([948.56, 5000.00],
                     [ 1.96257875E+01,  1.69207120E-02, -4.63449829E-06,
                       8.31537029E-10, -6.48622787E-14,  1.43121086E+04,
                      -8.33486126E+01])),
        transport=gas_transport(geom='nonlinear',
                                diam=6.335,
                                well_depth=465.787))

species(name=u'C7H11(73)',
        atoms='H:11 C:7',
        thermo=(NASA([100.00, 1011.64],
                     [ 6.34386667E-01,  6.15884528E-02, -1.58745404E-05,
                      -2.17020146E-08,  1.22709919E-11,  2.61969988E+04,
                       2.88252037E+01]),
                NASA([1011.64, 5000.00],
                     [ 1.49048255E+01,  3.21363021E-02, -1.21986138E-05,
                       2.23162207E-09, -1.56818202E-13,  2.19294791E+04,
                      -4.70082348E+01])),
        transport=gas_transport(geom='nonlinear',
                                diam=6.037,
                                well_depth=413.195))

species(name=u'C7H10(75)',
        atoms='H:10 C:7',
        thermo=(NASA([100.00, 907.49],
                     [ 2.19604880E+00, -2.26728239E-02,  2.92604421E-04,
                      -4.00995091E-07,  1.63804576E-10,  1.09897525E+04,
                       2.28140748E+01]),
                NASA([907.49, 5000.00],
                     [ 3.82903543E+01, -1.97686697E-02,  2.00347779E-05,
                      -4.04821336E-09,  2.61175430E-13, -2.23194491E+03,
                      -1.84569559E+02])),
        transport=gas_transport(geom='nonlinear',
                                diam=6.556,
                                well_depth=464.59))

species(name=u'C7H9O2(79)',
        atoms='H:9 C:7 O:2',
        thermo=(NASA([100.00, 909.98],
                     [ 1.07288959E+00,  7.81468180E-03,  2.21664739E-04,
                      -3.31550028E-07,  1.39286589E-10,  1.65183132E+04,
                       3.14427085E+01]),
                NASA([909.98, 5000.00],
                     [ 3.98744733E+01, -1.53126589E-02,  1.67620929E-05,
                      -3.39107913E-09,  2.17039009E-13,  3.35236752E+03,
                      -1.85632545E+02])),
        transport=gas_transport(geom='nonlinear',
                                diam=7.315,
                                well_depth=538.331))

species(name=u'C7H9O2(80)',
        atoms='H:9 C:7 O:2',
        thermo=(NASA([100.00, 1044.68],
                     [-3.66781870E-01,  8.29598725E-02, -5.44270353E-05,
                       7.61456850E-09,  3.79026080E-12,  1.50285685E+04,
                       1.66508798E+01]),
                NASA([1044.68, 5000.00],
                     [ 1.99717977E+01,  2.90465547E-02, -1.14210633E-05,
                       2.12610097E-09, -1.50563186E-13,  9.47158375E+03,
                      -8.86180454E+01])),
        transport=gas_transport(geom='nonlinear',
                                diam=7.315,
                                well_depth=538.331))

species(name=u'S(81)',
        atoms='H:11 C:7 O:2',
        thermo=(NASA([100.00, 910.16],
                     [ 6.56097962E-01,  1.67895897E-02,  2.13411385E-04,
                      -3.27001786E-07,  1.38244051E-10,  3.50645022E+03,
                       3.22460439E+01]),
                NASA([910.16, 5000.00],
                     [ 4.06591785E+01, -1.09825794E-02,  1.52136177E-05,
                      -3.12937698E-09,  1.99947086E-13, -9.90697604E+03,
                      -1.90663966E+02])),
        transport=gas_transport(geom='nonlinear',
                                diam=7.537,
                                well_depth=537.472))

species(name=u'S(95)',
        atoms='H:11 C:7 O:2',
        thermo=(NASA([100.00, 1404.04],
                     [-6.20574443E-01,  9.85376122E-02, -7.91258425E-05,
                       3.20938098E-08, -5.31584338E-12, -3.33729016E+03,
                      -4.01343588E-01]),
                NASA([1404.04, 5000.00],
                     [ 1.90368640E+01,  4.25356115E-02, -1.92968859E-05,
                       3.68606251E-09, -2.57673262E-13, -8.85730561E+03,
                      -1.01908124E+02])),
        transport=gas_transport(geom='nonlinear',
                                diam=7.343,
                                well_depth=508.724))

species(name=u'C7H11O(96)',
        atoms='H:11 C:7 O:1',
        thermo=(NASA([100.00, 909.88],
                     [ 1.24668486E+00, -7.31229701E-04,  2.55855637E-04,
                      -3.70636182E-07,  1.54013458E-10,  4.31343415E+03,
                       2.84137088E+01]),
                NASA([909.88, 5000.00],
                     [ 4.09946035E+01, -1.59465933E-02,  1.79531768E-05,
                      -3.63648313E-09,  2.32487739E-13, -9.52307355E+03,
                      -1.95880005E+02])),
        transport=gas_transport(geom='nonlinear',
                                diam=7.347,
                                well_depth=521.39))

species(name=u'S(122)',
        atoms='H:12 C:7 O:2',
        thermo=(NASA([100.00, 913.84],
                     [ 3.73015209E-01,  2.06131025E-02,  2.17273243E-04,
                      -3.35149801E-07,  1.41466121E-10, -1.47631742E+04,
                       3.25027264E+01]),
                NASA([913.84, 5000.00],
                     [ 4.24342748E+01, -9.64586724E-03,  1.44119281E-05,
                      -2.93385594E-09,  1.83599112E-13, -2.88746645E+04,
                      -2.01777271E+02])),
        transport=gas_transport(geom='nonlinear',
                                diam=7.537,
                                well_depth=537.472))

species(name=u'C2H4(128)',
        atoms='H:4 C:2',
        thermo=(NASA([100.00, 940.44],
                     [ 3.97977798E+00, -7.57601265E-03,  5.52988535E-05,
                      -6.36242698E-08,  2.31776676E-11,  5.07745943E+03,
                       4.04610841E+00]),
                NASA([940.44, 5000.00],
                     [ 5.20288729E+00,  7.82460951E-03, -2.12694216E-06,
                       3.79716339E-10, -2.94692264E-14,  3.93632496E+03,
                      -6.62351132E+00])),
        transport=gas_transport(geom='nonlinear',
                                diam=3.971,
                                well_depth=280.801,
                                rot_relax=1.5))

species(name=u'C7H10(159)',
        atoms='H:10 C:7',
        thermo=(NASA([100.00, 980.34],
                     [ 9.28267728E-01,  5.26924046E-02,  5.52854458E-06,
                      -4.52831357E-08,  2.12066400E-11,  1.70247128E+04,
                       2.64843678E+01]),
                NASA([980.34, 5000.00],
                     [ 1.56612084E+01,  2.77120684E-02, -1.00058366E-05,
                       1.83676993E-09, -1.31769540E-13,  1.24477715E+04,
                      -5.29116880E+01])),
        transport=gas_transport(geom='nonlinear',
                                diam=5.831,
                                well_depth=413.561))

species(name=u'C7H10(166)',
        atoms='H:10 C:7',
        thermo=(NASA([100.00, 948.76],
                     [ 1.31575698E+00,  3.59345224E-02,  6.36702381E-05,
                      -1.12616535E-07,  4.69037136E-11,  2.00942402E+04,
                       2.39004318E+01]),
                NASA([948.76, 5000.00],
                     [ 1.83880519E+01,  2.20840745E-02, -6.33093223E-06,
                       1.14581127E-09, -8.83194438E-14,  1.42385982E+04,
                      -7.13526601E+01])),
        transport=gas_transport(geom='nonlinear',
                                diam=6.126,
                                well_depth=430.781))

species(name=u'C5H7(205)',
        atoms='H:7 C:5',
        thermo=(NASA([100.00, 942.05],
                     [ 2.29869839E+00,  2.38035675E-02,  3.93738945E-05,
                      -6.93177874E-08,  2.88418836E-11,  2.12357604E+04,
                       1.67723176E+01]),
                NASA([942.05, 5000.00],
                     [ 1.19106007E+01,  1.73605270E-02, -5.09259843E-06,
                       8.77896163E-10, -6.40305328E-14,  1.78996916E+04,
                      -3.71202611E+01])),
        transport=gas_transport(geom='nonlinear',
                                diam=5.404,
                                well_depth=377.736))

species(name=u'C7H10(233)',
        atoms='H:10 C:7',
        thermo=(NASA([100.00, 969.37],
                     [ 1.58465038E+00,  3.26334252E-02,  6.22699131E-05,
                      -1.02070131E-07,  4.06604293E-11,  2.33103625E+04,
                       2.42389427E+01]),
                NASA([969.37, 5000.00],
                     [ 1.49729761E+01,  2.83636151E-02, -1.00029350E-05,
                       1.88271248E-09, -1.39676481E-13,  1.83196895E+04,
                      -5.22890344E+01])),
        transport=gas_transport(geom='nonlinear',
                                diam=6.145,
                                well_depth=430.188))

species(name=u'S(253)',
        atoms='H:9 C:7 O:2',
        thermo=(NASA([100.00, 912.65],
                     [ 1.04032848E+00, -4.88733269E-03,  2.86877595E-04,
                      -4.15828957E-07,  1.72772798E-10,  7.29086912E+03,
                       3.17890302E+01]),
                NASA([912.65, 5000.00],
                     [ 4.73078366E+01, -2.58502633E-02,  2.24978036E-05,
                      -4.41614123E-09,  2.79664806E-13, -8.72650635E+03,
                      -2.28680501E+02])),
        transport=gas_transport(geom='nonlinear',
                                diam=7.315,
                                well_depth=538.331))

species(name=u'S(254)',
        atoms='H:8 C:7 O:2',
        thermo=(NASA([100.00, 909.55],
                     [ 1.32234950E+00, -8.69797777E-03,  2.82969471E-04,
                      -4.07619969E-07,  1.69524701E-10,  2.55605388E+04,
                       3.15361297E+01]),
                NASA([909.55, 5000.00],
                     [ 4.55373499E+01, -2.71949368E-02,  2.33041363E-05,
                      -4.61276811E-09,  2.96105071E-13,  1.02392853E+04,
                      -2.17593064E+02])),
        transport=gas_transport(geom='nonlinear',
                                diam=7.315,
                                well_depth=538.331))

species(name=u'S(258)',
        atoms='H:9 C:7 O:2',
        thermo=(NASA([100.00, 1584.74],
                     [-8.57808443E-01,  9.18705398E-02, -7.28086209E-05,
                       2.78412792E-08, -4.19497094E-12,  1.01704567E+04,
                       1.94715460E+00]),
                NASA([1584.74, 5000.00],
                     [ 2.46462369E+01,  2.74966335E-02, -1.18771135E-05,
                       2.20874979E-09, -1.51332913E-13,  2.08697855E+03,
                      -1.32837772E+02])),
        transport=gas_transport(geom='nonlinear',
                                diam=7.125,
                                well_depth=509.905))

species(name=u'C7H8(301)',
        atoms='H:8 C:7',
        thermo=(NASA([100.00, 950.47],
                     [ 1.91417156E+00,  2.15414809E-02,  8.72720833E-05,
                      -1.32002063E-07,  5.28236956E-11,  3.14042378E+04,
                       1.96753262E+01]),
                NASA([950.47, 5000.00],
                     [ 1.72582149E+01,  1.85356395E-02, -5.14980677E-06,
                       9.75955935E-10, -7.92347079E-14,  2.57063874E+04,
                      -6.82011644E+01])),
        transport=gas_transport(geom='nonlinear',
                                diam=6.224,
                                well_depth=449.106))

species(name=u'OH(D)(303)',
        atoms='H:1 O:1',
        thermo=(NASA([100.00, 1145.76],
                     [ 3.51456841E+00,  2.92731942E-05, -5.32149835E-07,
                       1.01947431E-09, -3.85939061E-13,  3.41425418E+03,
                       2.10434749E+00]),
                NASA([1145.76, 5000.00],
                     [ 3.07193709E+00,  6.04020086E-04, -1.39807303E-08,
                      -2.13440498E-11,  2.48061111E-15,  3.57938799E+03,
                       4.57801556E+00])),
        transport=gas_transport(geom='linear',
                                diam=2.75,
                                well_depth=80.0))

species(name=u'S(366)',
        atoms='H:7 C:5 O:2',
        thermo=(NASA([100.00, 1305.43],
                     [ 1.03673783E+00,  6.08181921E-02, -5.10545514E-05,
                       2.27959723E-08, -4.14589949E-12,  1.55375046E+04,
                       2.57137292E+01]),
                NASA([1305.43, 5000.00],
                     [ 1.27277779E+01,  2.49956132E-02, -9.89299249E-06,
                       1.77541327E-09, -1.20323968E-13,  1.24851187E+04,
                      -3.38048959E+01])),
        transport=gas_transport(geom='nonlinear',
                                diam=6.302,
                                well_depth=463.964))

species(name=u'S(367)',
        atoms='H:7 C:5 O:2',
        thermo=(NASA([100.00, 1488.11],
                     [ 1.17828516E+00,  5.76801871E-02, -4.33629183E-05,
                       1.66179185E-08, -2.59639020E-12,  1.62727019E+04,
                       2.68607347E+01]),
                NASA([1488.11, 5000.00],
                     [ 1.32529329E+01,  2.52236479E-02, -1.06468418E-05,
                       1.96116769E-09, -1.34064723E-13,  1.26790441E+04,
                      -3.61921390E+01])),
        transport=gas_transport(geom='nonlinear',
                                diam=6.266,
                                well_depth=457.115))

species(name=u'S(415)',
        atoms='H:14 C:10',
        thermo=(NASA([100.00, 991.16],
                     [-1.11264319E+00,  9.32514237E-02, -3.08817577E-05,
                      -3.00004767E-08,  1.90628408E-11,  2.03158764E+04,
                       3.79693310E+01]),
                NASA([991.16, 5000.00],
                     [ 2.28373143E+01,  3.95052119E-02, -1.44795504E-05,
                       2.64408638E-09, -1.87705548E-13,  1.34605908E+04,
                      -8.79948909E+01])),
        transport=gas_transport(geom='nonlinear',
                                diam=6.634,
                                well_depth=474.43))

species(name=u'S(426)',
        atoms='H:14 C:10',
        thermo=(NASA([100.00, 1151.29],
                     [-1.29786084E+00,  1.02344704E-01, -7.01069769E-05,
                       2.03840805E-08, -1.07423094E-12,  2.27143883E+04,
                       3.83397778E+01]),
                NASA([1151.29, 5000.00],
                     [ 2.04737785E+01,  4.43035421E-02, -1.74185133E-05,
                       3.15356565E-09, -2.16222164E-13,  1.65347826E+04,
                      -7.48291489E+01])),
        transport=gas_transport(geom='nonlinear',
                                diam=6.597,
                                well_depth=467.597))

species(name=u'S(427)',
        atoms='H:14 C:10',
        thermo=(NASA([100.00, 1313.77],
                     [-6.58171730E-01,  1.02039128E-01, -7.79552492E-05,
                       3.21331762E-08, -5.59343355E-12,  2.50764545E+04,
                       3.43420390E+01]),
                NASA([1313.77, 5000.00],
                     [ 1.51220188E+01,  5.39938210E-02, -2.30996488E-05,
                       4.29707199E-09, -2.96467337E-13,  2.09301280E+04,
                      -4.60947557E+01])),
        transport=gas_transport(geom='nonlinear',
                                diam=6.56,
                                well_depth=460.731))

species(name=u'S(739)',
        atoms='H:11 C:7 O:1',
        thermo=(NASA([100.00, 1738.38],
                     [ 9.17119387E-01,  7.17440656E-02, -4.53170969E-05,
                       1.37193640E-08, -1.70695973E-12,  2.23204212E+03,
                       3.04736924E+01]),
                NASA([1738.38, 5000.00],
                     [ 1.42938773E+01,  4.09641161E-02, -1.87578226E-05,
                       3.53387254E-09, -2.42157342E-13, -2.41871672E+03,
                      -4.14581051E+01])),
        transport=gas_transport(geom='nonlinear',
                                diam=6.477,
                                well_depth=456.619))

species(name=u'H2O(757)',
        atoms='H:2 O:1',
        thermo=(NASA([100.00, 1130.25],
                     [ 4.05763720E+00, -7.87951343E-04,  2.90882564E-06,
                      -1.47524910E-09,  2.12866372E-13, -3.02815867E+04,
                      -3.11369025E-01]),
                NASA([1130.25, 5000.00],
                     [ 2.84324104E+00,  2.75110073E-03, -7.81040007E-07,
                       1.07245603E-10, -5.79408217E-15, -2.99586086E+04,
                       5.91047337E+00])),
        transport=gas_transport(geom='nonlinear',
                                diam=2.641,
                                well_depth=809.102,
                                polar=1.76,
                                rot_relax=4.0))

species(name=u'OO(807)',
        atoms='H:2 O:2',
        thermo=(NASA([100.00, 908.87],
                     [ 3.73136126E+00,  3.35066898E-03,  9.35048235E-06,
                      -1.52101743E-08,  6.41595118E-12, -1.77211710E+04,
                       5.45909689E+00]),
                NASA([908.87, 5000.00],
                     [ 5.41577885E+00,  2.61009583E-03, -4.39900542E-07,
                       4.91108076E-11, -3.35205823E-15, -1.83029490E+04,
                      -4.02243570E+00])),
        transport=gas_transport(geom='nonlinear',
                                diam=4.196,
                                well_depth=289.3))

species(name=u'S(810)',
        atoms='H:11 C:7 O:1',
        thermo=(NASA([100.00, 942.34],
                     [ 1.19066659E+00,  3.12242241E-02,  1.05539437E-04,
                      -1.65114948E-07,  6.71682970E-11, -1.03049783E+04,
                       2.76787536E+01]),
                NASA([942.34, 5000.00],
                     [ 2.12461544E+01,  2.36534319E-02, -5.86766682E-06,
                       1.04243985E-09, -8.41684625E-14, -1.75284723E+04,
                      -8.61582362E+01])),