units(length='cm', time='s', quantity='mol', act_energy='kcal/mol')

ideal_gas(name='gas',
          elements="H D T C Ci O Oi N Ne Ar He Si S Cl X",
          species="""N2          Ar          He          Ne
                     CH4(1)      O2(2)       CH3(3)      H(4)
                     HO2(7)      CH3OO(9)    OH(11)      O(12)
                     H2O2(13)    CH3OOH(15)  CH3O2(17)   CH2O2(18)
                     CH3O(19)    C2H6O2(21)  CH2O(24)    H2O(33)
                     CH3OH(35)   HCO(39)     CO(40)      CH2OH(41)
                     CHO3(66)    CH2O2(71)   acetyl(76)  CHO3(77)
                     HOCO(82)    CH2O2(169)  CO2(174)    CHO3(176)
                     C1OO1(327)""",
          reactions='all',
          transport='Mix',
          initial_state=state(temperature=300.0, pressure=OneAtm))

#-------------------------------------------------------------------------------
# Element data
#-------------------------------------------------------------------------------

element(symbol=u'X', atomic_mass=195.083)
element(symbol=u'Ci', atomic_mass=13.003)
element(symbol=u'D', atomic_mass=2.014)
element(symbol=u'Oi', atomic_mass=18.0)
element(symbol=u'T', atomic_mass=3.016)
#-------------------------------------------------------------------------------
# Species data
#-------------------------------------------------------------------------------

species(name=u'N2',
        atoms='N:2',
        thermo=(NASA([100.00, 1817.04],
                     [ 3.61262577E+00, -1.00892952E-03,  2.49898347E-06,
                      -1.43375499E-09,  2.58635395E-13, -1.05110288E+03,
                       2.65270399E+00]),
                NASA([1817.04, 5000.00],
                     [ 2.97590593E+00,  1.64140468E-03, -7.19719150E-07,
                       1.25377103E-10, -7.91522188E-15, -1.02584593E+03,
                       5.53754353E+00])),
        transport=gas_transport(geom='linear',
                                diam=3.621,
                                well_depth=97.53,
                                polar=1.76,
                                rot_relax=4.0))

species(name=u'Ar',
        atoms='Ar:1',
        thermo=(NASA([100.00, 4383.16],
                     [ 2.50000000E+00, -2.38914167E-13,  3.12709494E-16,
                      -1.33367320E-19,  1.74989654E-23, -7.45000000E+02,
                       4.36630363E+00]),
                NASA([4383.16, 5000.00],
                     [ 2.50003447E+00, -3.04996987E-08,  1.01101187E-11,
                      -1.48796738E-15,  8.20356170E-20, -7.45031138E+02,
                       4.36608535E+00])),
        transport=gas_transport(geom='atom',
                                diam=3.33,
                                well_depth=136.501))

species(name=u'He',
        atoms='He:1',
        thermo=(NASA([100.00, 4383.16],
                     [ 2.50000000E+00, -2.38914167E-13,  3.12709494E-16,
                      -1.33367320E-19,  1.74989654E-23, -7.45000000E+02,
                       9.14221530E-01]),
                NASA([4383.16, 5000.00],
                     [ 2.50003447E+00, -3.04996987E-08,  1.01101187E-11,
                      -1.48796738E-15,  8.20356170E-20, -7.45031138E+02,
                       9.14003242E-01])),
        transport=gas_transport(geom='atom',
                                diam=2.576,
                                well_depth=10.2))

species(name=u'Ne',
        atoms='Ne:1',
        thermo=(NASA([200.00, 1000.00],
                     [ 2.50000000E+00,  0.00000000E+00,  0.00000000E+00,
                       0.00000000E+00,  0.00000000E+00, -7.45375000E+02,
                       3.35532000E+00]),
                NASA([1000.00, 6000.00],
                     [ 2.50000000E+00,  0.00000000E+00,  0.00000000E+00,
                       0.00000000E+00,  0.00000000E+00, -7.45375000E+02,
                       3.35532000E+00])),
        transport=gas_transport(geom='atom',
                                diam=3.758,
                                well_depth=148.6))

species(name=u'CH4(1)',
        atoms='H:4 C:1',
        thermo=(NASA([100.00, 1084.15],
                     [ 4.20540072E+00, -5.35540640E-03,  2.51117636E-05,
                      -2.13755910E-08,  5.97496145E-12, -1.01619427E+04,
                      -9.21226951E-01]),
                NASA([1084.15, 5000.00],
                     [ 9.08349401E-01,  1.14539479E-02, -4.57166053E-06,
                       8.29173612E-10, -5.66300105E-14, -9.72001110E+03,
                       1.39926204E+01])),
        transport=gas_transport(geom='nonlinear',
                                diam=3.746,
                                well_depth=141.4,
                                polar=2.6,
                                rot_relax=13.0))

species(name=u'O2(2)',
        atoms='O:2',
        thermo=(NASA([100.00, 1087.71],
                     [ 3.53763683E+00, -1.22827485E-03,  5.36758541E-06,
                      -4.93128012E-09,  1.45955076E-12, -1.03799025E+03,
                       4.67179818E+00]),
                NASA([1087.71, 5000.00],
                     [ 3.16427290E+00,  1.69453611E-03, -8.00335082E-07,
                       1.59029911E-10, -1.14890904E-14, -1.04844569E+03,
                       6.08302655E+00])),
        transport=gas_transport(geom='linear',
                                diam=3.467,
                                well_depth=106.7))

species(name=u'CH3(3)',
        atoms='H:3 C:1',
        thermo=(NASA([100.00, 660.43],
                     [ 3.94800587E+00,  8.27587030E-04,  8.34936525E-06,
                      -9.82641491E-09,  3.80107349E-12,  1.64253714E+04,
                       3.36651483E-01]),
                NASA([660.43, 5000.00],
                     [ 3.22169608E+00,  5.22645958E-03, -1.64124763E-06,
                       2.58224264E-10, -1.62579106E-14,  1.65213098E+04,
                       3.53937940E+00])),
        transport=gas_transport(geom='nonlinear',
                                diam=3.8,
                                well_depth=144.001))

species(name=u'H(4)',
        atoms='H:1',
        thermo=(NASA([100.00, 4383.16],
                     [ 2.50000000E+00, -2.38914167E-13,  3.12709494E-16,
                      -1.33367320E-19,  1.74989654E-23,  2.54727081E+04,
                      -4.59566247E-01]),
                NASA([4383.16, 5000.00],
                     [ 2.50003447E+00, -3.04996987E-08,  1.01101187E-11,
                      -1.48796738E-15,  8.20356170E-20,  2.54726770E+04,
                      -4.59784534E-01])),
        transport=gas_transport(geom='atom',
                                diam=2.05,
                                well_depth=145.0))

species(name=u'HO2(7)',
        atoms='H:1 O:2',
        thermo=(NASA([100.00, 923.90],
                     [ 4.02957107E+00, -2.63998930E-03,  1.52235427E-05,
                      -1.71678543E-08,  6.26771070E-12,  3.22676805E+02,
                       4.84424037E+00]),
                NASA([923.90, 5000.00],
                     [ 4.15129967E+00,  1.91151750E-03, -4.11307832E-07,
                       6.35037514E-11, -4.86452298E-15,  8.34341022E+01,
                       3.09359133E+00])),
        transport=gas_transport(geom='nonlinear',
                                diam=3.458,
                                well_depth=107.4,
                                rot_relax=1.0))

species(name=u'CH3OO(9)',
        atoms='H:3 C:1 O:2',
        thermo=(NASA([100.00, 1001.46],
                     [ 3.63773640E+00,  3.81140956E-03,  2.14544152E-05,
                      -2.68371243E-08,  9.49411464E-12,  2.47918228E+02,
                       9.81740781E+00]),
                NASA([1001.46, 5000.00],
                     [ 4.74149369E+00,  1.00949407E-02, -3.97182266E-06,
                       7.49797370E-10, -5.38575513E-14, -5.09327995E+02,
                       1.81386280E+00])),
        transport=gas_transport(geom='nonlinear',
                                diam=3.69,
                                well_depth=417.0,
                                dipole=1.7,
                                rot_relax=2.0))

species(name=u'OH(11)',
        atoms='H:1 O:1',
        thermo=(NASA([100.00, 1005.24],
                     [ 3.48579318E+00,  1.33399885E-03, -4.70054183E-06,
                       5.64393447E-09, -2.06323747E-12,  3.41195714E+03,
                       1.99788624E+00]),
                NASA([1005.24, 5000.00],
                     [ 2.88226356E+00,  1.03866921E-03, -2.35641168E-07,
                       1.40204240E-11,  6.34789746E-16,  3.66955542E+03,
                       5.59047041E+00])),
        transport=gas_transport(geom='linear',
                                diam=2.75,
                                well_depth=80.0))

species(name=u'O(12)',
        atoms='O:1',
        thermo=(NASA([100.00, 4383.16],
                     [ 2.50000000E+00, -2.38914167E-13,  3.12709494E-16,
                      -1.33367320E-19,  1.74989654E-23,  2.92267216E+04,
                       5.11106770E+00]),
                NASA([4383.16, 5000.00],
                     [ 2.50003447E+00, -3.04996987E-08,  1.01101187E-11,
                      -1.48796738E-15,  8.20356170E-20,  2.92266905E+04,
                       5.11084942E+00])),
        transport=gas_transport(geom='atom',
                                diam=2.75,
                                well_depth=80.0))

species(name=u'H2O2(13)',
        atoms='H:2 O:2',
        thermo=(NASA([100.00, 923.28],
                     [ 3.72866085E+00,  4.13388982E-03,  5.67454130E-06,
                      -1.01859637E-08,  4.28584486E-12, -1.76963955E+04,
                       5.35914855E+00]),
                NASA([923.28, 5000.00],
                     [ 4.95154573E+00,  3.54224941E-03, -1.01037852E-06,
                       1.61935079E-10, -1.10203774E-14, -1.81228053E+04,
                      -1.52927478E+00])),
        transport=gas_transport(geom='nonlinear',
                                diam=4.196,
                                well_depth=289.3))

species(name=u'CH3OOH(15)',
        atoms='H:4 C:1 O:2',
        thermo=(NASA([100.00, 1034.67],
                     [ 3.23139819E+00,  1.35498174E-02,  3.50700321E-06,
                      -1.14430603E-08,  4.62796419E-12, -1.70370523E+04,
                       1.12576881E+01]),
                NASA([1034.67, 5000.00],
                     [ 5.75835480E+00,  1.14125274E-02, -4.45855613E-06,
                       8.18195859E-10, -5.71088129E-14, -1.79684795E+04,
                      -2.99365979E+00])),
        transport=gas_transport(geom='nonlinear',
                                diam=3.626,
                                well_depth=481.8,
                                rot_relax=1.0))

species(name=u'CH3O2(17)',
        atoms='H:3 C:1 O:2',
        thermo=(NASA([100.00, 1022.88],
                     [ 3.14057829E+00,  1.58033276E-02, -5.30974601E-06,
                      -4.13263355E-09,  2.63546933E-12,  6.50841976E+03,
                       1.10750467E+01]),
                NASA([1022.88, 5000.00],
                     [ 6.93787044E+00,  7.52637173E-03, -2.81014397E-06,
                       5.19898661E-10, -3.69266973E-14,  5.38775057E+03,
                      -9.01130892E+00])),
        transport=gas_transport(geom='nonlinear',
                                diam=3.69,
                                well_depth=417.0,
                                dipole=1.7,
                                rot_relax=2.0))

species(name=u'CH2O2(18)',
        atoms='H:2 C:1 O:2',
        thermo=(NASA([100.00, 1197.11],
                     [ 3.43223221E+00,  1.19347906E-02, -9.20112888E-06,
                       4.32806150E-09, -8.54523093E-13,  2.47772591E+04,
                       1.07820315E+01]),
                NASA([1197.11, 5000.00],
                     [ 5.14052942E+00,  6.22677342E-03, -2.04894967E-06,
                       3.45073648E-10, -2.27385525E-14,  2.43682513E+04,
                       2.23312863E+00])),
        transport=gas_transport(geom='nonlinear',
                                diam=5.391,
                                well_depth=384.897))

species(name=u'CH3O(19)',
        atoms='H:3 C:1 O:1',
        thermo=(NASA([100.00, 959.54],
                     [ 3.95321494E+00, -3.81939230E-03,  3.45429164E-05,
                      -3.89343027E-08,  1.37893718E-11,  1.21482139E+03,
                       4.78501270E+00]),
                NASA([959.54, 5000.00],
                     [ 4.29953433E+00,  7.31086099E-03, -2.51256809E-06,
                       4.67586848E-10, -3.45473965E-14,  5.69505511E+02,
                       1.12219133E-01])),
        transport=gas_transport(geom='nonlinear',
                                diam=3.69,
                                well_depth=417.002,
                                dipole=1.7,
                                rot_relax=2.0))

species(name=u'C2H6O2(21)',
        atoms='H:6 C:2 O:2',
        thermo=(NASA([100.00, 1402.39],
                     [ 2.59552467E+00,  2.73446643E-02, -1.16272086E-05,
                       8.52704852E-10,  4.34937908E-13, -1.65527573E+04,
                       1.39167219E+01]),
                NASA([1402.39, 5000.00],
                     [ 7.37806460E+00,  1.85555076E-02, -7.41595322E-06,
                       1.31780563E-09, -8.77655568E-14, -1.83712725E+04,
                      -1.24747042E+01])),
        transport=gas_transport(geom='nonlinear',
                                diam=5.188,
                                well_depth=349.222))

species(name=u'CH2O(24)',
        atoms='H:2 C:1 O:1',
        thermo=(NASA([100.00, 1041.96],
                     [ 4.13878818E+00, -4.69514383E-03,  2.25730249E-05,
                      -2.09849937E-08,  6.36123283E-12, -1.43493283E+04,
                       3.23827482E+00]),
                NASA([1041.96, 5000.00],
                     [ 2.36095410E+00,  7.66804276E-03, -3.19770442E-06,
                       6.04724833E-10, -4.27517878E-14, -1.42794809E+04,
                       1.04457152E+01])),
        transport=gas_transport(geom='nonlinear',
                                diam=3.59,
                                well_depth=498.002,
                                rot_relax=2.0))

species(name=u'H2O(33)',
        atoms='H:2 O:1',
        thermo=(NASA([100.00, 1281.44],
                     [ 3.99881998E+00, -5.54830883E-04,  2.76774197E-06,
                      -1.55664942E-09,  3.02330299E-13, -3.02745569E+04,
                      -3.08941329E-02]),
                NASA([1281.44, 5000.00],
                     [ 3.19560339E+00,  1.95240061E-03, -1.67118548E-07,
                      -2.97937699E-11,  4.45138523E-15, -3.00687021E+04,
                       4.04334673E+00])),
        transport=gas_transport(geom='nonlinear',
                                diam=2.641,
                                well_depth=809.102,
                                polar=1.76,
                                rot_relax=4.0))

species(name=u'CH3OH(35)',
        atoms='H:4 C:1 O:1',
        thermo=(NASA([100.00, 995.36],
                     [ 3.91002705E+00, -1.31512865E-03,  2.80670660E-05,
                      -2.98997855E-08,  9.91751133E-12, -2.55753746E+04,
                       5.89066058E+00]),
                NASA([995.36, 5000.00],
                     [ 3.01636855E+00,  1.12130165E-02, -4.28043636E-06,
                       7.85999971E-10, -5.52593571E-14, -2.58401801E+04,
                       7.97403829E+00])),
        transport=gas_transport(geom='nonlinear',
                                diam=3.626,
                                well_depth=481.802,
                                rot_relax=1.0))

species(name=u'HCO(39)',
        atoms='H:1 C:1 O:1',
        thermo=(NASA([100.00, 1105.10],
                     [ 4.06159769E+00, -1.81955352E-03,  9.37911610E-06,
                      -8.24761932E-09,  2.33858903E-12,  3.91858600E+03,
                       3.98387668E+00]),
                NASA([1105.10, 5000.00],
                     [ 3.05332354E+00,  4.10468576E-03, -1.74964343E-06,
                       3.28537547E-10, -2.28989747E-14,  4.00253463E+03,
                       8.32053155E+00])),
        transport=gas_transport(geom='nonlinear',
                                diam=3.59,
                                well_depth=498.002))

species(name=u'CO(40)',
        atoms='C:1 O:1',
        thermo=(NASA([100.00, 1669.91],
                     [ 3.59709776E+00, -1.02424814E-03,  2.83338958E-06,
                      -1.75827500E-09,  3.42593462E-13, -1.43431899E+04,
                       3.45821758E+00]),
                NASA([1669.91, 5000.00],
                     [ 2.92790884E+00,  1.81937225E-03, -8.35341035E-07,
                       1.51276009E-10, -9.88923938E-15, -1.42926827E+04,
                       6.51184709E+00])),
        transport=gas_transport(geom='linear',
                                diam=3.69,
                                well_depth=91.7,
                                polar=1.76,
                                rot_relax=4.0))

species(name=u'CH2OH(41)',
        atoms='H:3 C:1 O:1',
        thermo=(NASA([100.00, 942.60],
                     [ 3.62325893E+00,  5.44074327E-03,  9.71841352E-06,
                      -1.58621477E-08,  6.40720351E-12, -3.18533383E+03,
                       6.71469934E+00]),
                NASA([942.60, 5000.00],
                     [ 5.31886704E+00,  5.42713225E-03, -1.68869568E-06,
                       2.88835569E-10, -2.02660885E-14, -3.82404133E+03,
                      -3.05779756E+00])),
        transport=gas_transport(geom='nonlinear',
                                diam=3.69,
                                well_depth=417.002,
                                dipole=1.7,
                                rot_relax=2.0))

species(name=u'CHO3(66)',
        atoms='H:1 C:1 O:3',
        thermo=(NASA([100.00, 990.68],
                     [ 3.11870192E+00,  1.45187437E-02, -1.85238564E-07,
                      -1.22533085E-08,  6.08138396E-12, -1.42236641E+04,
                       1.13177622E+01]),
                NASA([990.68, 5000.00],
                     [ 8.52147378E+00,  4.09730225E-03, -1.65618252E-06,
                       3.44822533E-10, -2.71430044E-14, -1.58532280E+04,
                      -1.75185955E+01])),
        transport=gas_transport(geom='nonlinear',
                                diam=5.617,
                                well_depth=429.382))

species(name=u'CH2O2(71)',
        atoms='H:2 C:1 O:2',
        thermo=(NASA([100.00, 997.62],
                     [ 3.76622989E+00, -8.67650389E-04,  3.32886807E-05,
                      -3.95821785E-08,  1.39943803E-11, -4.68302039E+04,
                       7.56889637E+00]),
                NASA([997.62, 5000.00],
                     [ 5.52465339E+00,  7.79122189E-03, -3.35083713E-06,
                       6.86814351E-10, -5.23907177E-14, -4.79627849E+04,
                      -4.82828110E+00])),
        transport=gas_transport(geom='nonlinear',
                                diam=3.626,
                                well_depth=481.8,
                                dipole=1.7,
                                rot_relax=1.0))

species(name=u'acetyl(76)',
        atoms='H:3 C:2 O:1',
        thermo=(NASA([100.00, 1011.57],
                     [ 3.63677889E+00,  4.50842859E-03,  1.80295418E-05,
                      -2.25970491E-08,  7.88627426E-12, -2.54495151E+03,
                       9.39482660E+00]),
                NASA([1011.57, 5000.00],
                     [ 4.39400032E+00,  1.04823692E-02, -4.12727263E-06,
                       7.69396930E-10, -5.45059108E-14, -3.15699392E+03,
                       3.46497263E+00])),
        transport=gas_transport(geom='nonlinear',
                                diam=3.97,
                                well_depth=436.001,
                                rot_relax=2.0))

species(name=u'CHO3(77)',
        atoms='H:1 C:1 O:3',
        thermo=(NASA([100.00, 707.00],
                     [ 2.48735270E+00,  3.47706192E-02, -5.34898338E-05,
                       3.35003201E-08, -5.76585311E-12, -1.29156319E+04,
                       1.08793672E+01]),
                NASA([707.00, 5000.00],
                     [ 1.00715249E+01,  5.43785343E-04,  7.06656721E-07,
                      -2.34613222E-10,  2.09823747E-14, -1.42050229E+04,
                      -2.46148382E+01])),
        transport=gas_transport(geom='nonlinear',
                                diam=5.617,
                                well_depth=429.382))

species(name=u'HOCO(82)',
        atoms='H:1 C:1 O:2',
        thermo=(NASA([100.00, 958.30],
                     [ 3.56898044E+00,  5.44957351E-03,  1.00503315E-05,
                      -1.82772534E-08,  7.65472441E-12, -2.33428553E+04,
                       8.03335193E+00]),
                NASA([958.30, 5000.00],
                     [ 6.76284653E+00,  2.19784614E-03, -6.37114755E-07,
                       1.33551970E-10, -1.15922932E-14, -2.44178221E+04,
                      -9.65400739E+00])),
        transport=gas_transport(geom='nonlinear',
                                diam=3.59,
                                well_depth=498.0,
                                rot_relax=2.0))

species(name=u'CH2O2(169)',
        atoms='H:2 C:1 O:2',
        thermo=(NASA([100.00, 1502.35],
                     [ 4.27780158E+00, -1.80131738E-03,  2.07571097E-05,
                      -1.64552240E-08,  3.76049082E-12,  5.25596620E+03,
                       7.17782814E+00]),
                NASA([1502.35, 5000.00],
                     [ 2.16856741E+00,  1.55419066E-02, -8.26807448E-06,
                       1.62059421E-09, -1.12066957E-13,  4.56626240E+03,
                       1.38075291E+01])),
        transport=gas_transport(geom='nonlinear',
                                diam=5.898,
                                well_depth=436.691))

species(name=u'CO2(174)',
        atoms='C:1 O:2',
        thermo=(NASA([100.00, 988.19],
                     [ 3.27789883E+00,  2.75786865E-03,  7.12771566E-06,
                      -1.07852526E-08,  4.14218887E-12, -4.84756030E+04,
                       5.97857134E+00]),
                NASA([988.19, 5000.00],
                     [ 4.55072680E+00,  2.90725847E-03, -1.14641692E-06,
                       2.25794394E-10, -1.69523485E-14, -4.89860152E+04,
                      -1.45670000E+00])),
        transport=gas_transport(geom='linear',
                                diam=3.941,
                                well_depth=195.201))

species(name=u'CHO3(176)',
        atoms='H:1 C:1 O:3',
        thermo=(NASA([100.00, 968.19],
                     [ 3.28601163E+00,  9.07582191E-03,  1.53512490E-05,
                      -2.86378516E-08,  1.19716449E-11, -4.58350944E+04,
                       1.10209647E+01]),
                NASA([968.19, 5000.00],
                     [ 8.68692336E+00,  3.22539966E-03, -1.09073820E-06,
                       2.46295264E-10, -2.15819215E-14, -4.76525285E+04,
                      -1.88455428E+01])),
        transport=gas_transport(geom='nonlinear',
                                diam=5.425,
                                well_depth=432.363))

species(name=u'C1OO1(327)',
        atoms='H:2 C:1 O:2',
        thermo=(NASA([100.00, 885.24],
                     [ 3.54069782E+00, -1.77470265E-02,  1.31429334E-04,
                      -1.83799499E-07,  7.77363877E-11, -1.97383728E+03,
                       7.10088126E+00]),
                NASA([885.24, 5000.00],
                     [ 2.11782972E+01, -2.37523678E-02,  1.67391225E-05,
                      -3.39188901E-09,  2.31167322E-13, -7.98394007E+03,
                      -9.21489464E+01])),
        transport=gas_transport(geom='nonlinear',
                                diam=5.143,
                                well_depth=362.248))

#-------------------------------------------------------------------------------
# Reaction data
#-------------------------------------------------------------------------------
#  Reaction index: Chemkin #1; RMG #3
#  Template reaction: H_Abstraction
#  Flux pairs: O2(2), HO2(7); CH4(1), CH3(3);
#  Matched reaction 190 CH4b + O2 <=> CH3_p1 + HO2 in H_Abstraction/training
#  This reaction matched rate rule [C_methane;O2b]
#  family: H_Abstraction
#  Ea raised from 216.4 to 232.3 kJ/mol to match endothermicity of reaction.

# Reaction 1
reaction('CH4(1) + O2(2) <=> CH3(3) + HO2(7)', [2.030000e+05, 2.745, 55.517])
#  Reaction index: Chemkin #2; RMG #6
#  Template reaction: R_Recombination
#  Flux pairs: CH3OO(9), CH3(3); CH3OO(9), O2(2);
#  Matched reaction 0 CH3O2 <=> O2 + CH3 in R_Recombination/training
#  This reaction matched rate rule [C_methyl;O2_birad]
#  family: R_Recombination

# Reaction 2
reaction('CH3OO(9) <=> O2(2) + CH3(3)', [1.090000e+14, 0.25, 33.3])
#  Reaction index: Chemkin #3; RMG #17
#  Template reaction: intra_H_migration
#  Flux pairs: CH3OO(9), CH3O2(17);
#  Matched reaction 240 CH3O2 <=> CH3O2-2 in intra_H_migration/training
#  This reaction matched rate rule [R3H_SS_O;O_rad_out;Cs_H_out_2H]
#  family: intra_H_migration

# Reaction 3
reaction('CH3OO(9) <=> CH3O2(17)', [4.710000e+08, 1.45, 42.27])
#  Reaction index: Chemkin #4; RMG #32
#  Template reaction: R_Addition_MultipleBond
#  Flux pairs: CH2O(24), CH3O2(17); OH(11), CH3O2(17);
#  Estimated using template [Od_CO-HH;YJ] for rate rule [Od_CO-HH;OJ_pri]
#  Euclidian distance = 2.0
#  family: R_Addition_MultipleBond
#  Ea raised from 139.5 to 144.7 kJ/mol to match endothermicity of reaction.

# Reaction 4
reaction('CH2O(24) + OH(11) <=> CH3O2(17)', [2.330000e+03, 3.17, 34.594],
         options='duplicate')
#  Reaction index: Chemkin #5; RMG #108
#  Template reaction: R_Addition_MultipleBond
#  Flux pairs: OH(11), CH3O2(17); CH2O(24), CH3O2(17);
#  Estimated using template [Od_CO-HH;YJ] for rate rule [Od_CO-HH;OJ_pri]
#  Euclidian distance = 2.0
#  family: R_Addition_MultipleBond
#  Ea raised from 139.5 to 144.7 kJ/mol to match endothermicity of reaction.

# Reaction 5
reaction('CH2O(24) + OH(11) <=> CH3O2(17)', [2.330000e+03, 3.17, 34.594],
         options='duplicate')
#  Reaction index: Chemkin #6; RMG #58
#  Template reaction: H_Abstraction
#  Flux pairs: OH(11), H2O(33); CH4(1), CH3(3);
#  Matched reaction 188 CH4b + OH <=> CH3_p1 + H2O_p in H_Abstraction/training
#  This reaction matched rate rule [C_methane;O_pri_rad]
#  family: H_Abstraction

# Reaction 6
reaction('CH4(1) + OH(11) <=> CH3(3) + H2O(33)', [1.000000e+06, 2.182, 2.506])
#  Reaction index: Chemkin #7; RMG #64
#  Template reaction: H_Abstraction
#  Flux pairs: H2O(33), OH(11); O2(2), HO2(7);
#  Matched reaction 379 H2O + O2 <=> HO2_r12 + OH_p23 in H_Abstraction/training
#  This reaction matched rate rule [Orad_O_H;O_pri_rad]
#  family: H_Abstraction

# Reaction 7
reaction('O2(2) + H2O(33) <=> OH(11) + HO2(7)', [9.300000e+12, 0.0, 74.12])
#  Reaction index: Chemkin #8; RMG #11
#  Template reaction: H_Abstraction
#  Flux pairs: HO2(7), H2O2(13); CH4(1), CH3(3);
#  Matched reaction 189 CH4b + HO2_r3 <=> CH3_p1 + H2O2_p13 in H_Abstraction/training
#  This reaction matched rate rule [C_methane;O_rad/NonDeO]
#  family: H_Abstraction

# Reaction 8
reaction('CH4(1) + HO2(7) <=> H2O2(13) + CH3(3)', [4.700000e+04, 2.5, 21.0])
#  Reaction index: Chemkin #9; RMG #15
#  Template reaction: H_Abstraction
#  Flux pairs: HO2(7), H2O2(13); HO2(7), O2(2);
#  Matched reaction 405 HO2_r3 + HO2_r12 <=> H2O2 + O2 in H_Abstraction/training
#  This reaction matched rate rule [Orad_O_H;O_rad/NonDeO]
#  family: H_Abstraction

# Reaction 9
reaction('HO2(7) + HO2(7) <=> O2(2) + H2O2(13)', [1.750000e+10, 0.0, -3.275])
#  Reaction index: Chemkin #10; RMG #75
#  Template reaction: R_Recombination
#  Flux pairs: OH(11), H2O2(13); OH(11), H2O2(13);
#  Matched reaction 96 OH + OH <=> H2O2 in R_Recombination/training
#  This reaction matched rate rule [O_pri_rad;O_pri_rad]
#  family: R_Recombination

# Reaction 10
reaction('OH(11) + OH(11) <=> H2O2(13)', [7.850000e+12, 0.0, 0.0])
#  Reaction index: Chemkin #11; RMG #119
#  Template reaction: H_Abstraction
#  Flux pairs: H2O2(13), HO2(7); OH(11), H2O(33);
#  Estimated using average of templates [O/H/NonDeO;O_pri_rad] + [H2O2;O_rad] for rate rule [H2O2;O_pri_rad]
#  Euclidian distance = 1.0
#  Multiplied by reaction path degeneracy 2.0
#  family: H_Abstraction

# Reaction 11
reaction('H2O2(13) + OH(11) <=> HO2(7) + H2O(33)', [4.994995e+05, 1.927, 6.325])
#  Reaction index: Chemkin #12; RMG #14
#  Template reaction: R_Recombination
#  Flux pairs: HO2(7), CH3OOH(15); CH3(3), CH3OOH(15);
#  From training reaction 74 used for C_methyl;O_rad/NonDe
#  Exact match found for rate rule [O_rad/NonDe;C_methyl]
#  Euclidian distance = 0
#  family: R_Recombination

# Reaction 12
reaction('CH3(3) + HO2(7) <=> CH3OOH(15)', [1.210000e+13, 0.0, 0.0])
#  Reaction index: Chemkin #13; RMG #21
#  Template reaction: H_Abstraction
#  Flux pairs: CH3OO(9), CH3OOH(15); CH4(1), CH3(3);
#  Matched reaction 209 CH3O2 + CH4b <=> CH3OOH_p + CH3_p1 in H_Abstraction/training
#  This reaction matched rate rule [C_methane;OOC]
#  family: H_Abstraction

# Reaction 13
reaction('CH4(1) + CH3OO(9) <=> CH3OOH(15) + CH3(3)', [4.450000e-03, 4.691, 19.868])
#  Reaction index: Chemkin #14; RMG #27
#  Template reaction: H_Abstraction
#  Flux pairs: CH3OO(9), CH3OOH(15); HO2(7), O2(2);
#  From training reaction 244 used for Orad_O_H;OOC
#  Exact match found for rate rule [Orad_O_H;OOC]
#  Euclidian distance = 0
#  family: H_Abstraction
#  Ea raised from -8.2 to -8.2 kJ/mol.

# Reaction 14
reaction('HO2(7) + CH3OO(9) <=> O2(2) + CH3OOH(15)', [1.200000e+11, 0.0, -1.95])
#  Reaction index: Chemkin #15; RMG #38
#  Template reaction: H_Abstraction
#  Flux pairs: CH3OOH(15), CH3O2(17); CH3(3), CH4(1);
#  From training reaction 201 used for C/H3/O;C_methyl