units(length='cm', time='s', quantity='mol', act_energy='kcal/mol')

ideal_gas(name='gas',
          elements="H D T C Ci O Oi N Ne Ar He Si S Cl X",
          species="""N2          Ne          CHPD(1)     O2(2)
                     C7H9(3)     C7H10(4)    C7H11(5)    C5H7O2(6)
                     C6H12O(7)   C7H9O2(8)   C7H9O(9)    C7H9O2(10)
                     C7H8(11)    S(12)       C7H8O(13)   C7H8O(14)
                     C7H9O4(15)  C7H8O3(16)  S(17)       S(18)
                     H(19)       O(20)       OH(21)      H2(22)
                     H2O(23)     Ar(24)      He(25)      HO2(26)
                     H2O2(27)    CO(28)      CO2(29)     HCO(30)
                     C(T)(31)    CH(32)      CH2(T)(33)  CH3(34)
                     CH2O(35)    HCCO(36)    C2H(37)     C2H2(38)
                     H2CC(39)    CH2(S)(40)  CH3OH(41)   CH3O(42)
                     CH2CO(43)   C2H3(44)    C2H4(45)    CH4(46)
                     C2H6(47)    C2H5(48)    CH2OH(49)   CH3CO(50)
                     CH2CHO(51)  CH3CHO(52)  C7H9(85)    C7H10(98)
                     C7H10(101)  C7H11(102)  C7H9(131)   C5H6(133)
                     S(175)      S(176)      C5H7(178)   C7H10(206)
                     C7H8(223)   S(239)      S(242)      S(262)
                     S(277)      S(288)      S(312)      S(313)
                     S(321)      S(370)      S(484)      S(485)
                     C5H7O(486)  S(572)      C7H7O(601)  S(673)
                     C7H9O(688)  C7H9(847)   C7H8O(850)  S(872)
                     S(898)      S(907)      C7H8O(949)  C7H9O(957)
                     S(973)      S(980)      S(986)      S(1003)
                     S(1011)     S(1025)     S(1038)     S(1044)
                     S(1066)     S(1225)     S(1226)     S(1309)
                     S(1328)     S(1349)     S(1361)     S(1371)
                     S(1511)     C5H6(1551)  C5H6(1552)  S(1569)
                     S(1742)     C7H9(1802)  S(1840)     S(1869)
                     S(1870)     S(1871)     S(1913)     S(1914)
                     S(1965)     S(2052)     S(2086)     S(2087)
                     S(2102)     S(2103)     S(2104)     S(2120)
                     S(2129)     S(2237)     S(2465)     S(2474)
                     S(2625)     S(2629)     S(2837)     S(2886)
                     S(3038)     S(3120)     S(3121)     S(3122)
                     S(3124)     S(3275)     S(3276)     S(3448)
                     S(3515)     S(3516)     S(3517)     S(4143)
                     S(4145)     S(4273)     S(4315)     S(4340)
                     S(4365)     S(4385)     S(4386)     S(4577)
                     S(4824)     S(4825)     S(4893)     S(4944)
                     S(5019)     S(5050)     S(5065)     S(5072)
                     S(5127)     S(5128)     S(5143)     S(5144)
                     S(5170)     S(5171)     S(5310)     S(5433)
                     S(5434)     S(5575)     S(5576)     S(5589)
                     S(5591)     S(5598)     S(5604)     S(5605)
                     S(5607)     S(5638)     S(5677)     S(5678)
                     S(5817)     S(5819)     S(5832)     S(5897)
                     S(6034)     S(6388)     S(6429)     S(6872)
                     S(6873)     S(6990)     S(6992)     S(6994)
                     S(6995)     S(6996)     S(7128)     S(7175)
                     S(7267)     S(7273)     S(7535)""",
          reactions='all',
          transport='Mix',
          initial_state=state(temperature=300.0, pressure=OneAtm))

#-------------------------------------------------------------------------------
# Element data
#-------------------------------------------------------------------------------

element(symbol=u'X', atomic_mass=195.083)
element(symbol=u'Ci', atomic_mass=13.003)
element(symbol=u'D', atomic_mass=2.014)
element(symbol=u'Oi', atomic_mass=18.0)
element(symbol=u'T', atomic_mass=3.016)
#-------------------------------------------------------------------------------
# Species data
#-------------------------------------------------------------------------------

species(name=u'N2',
        atoms='N:2',
        thermo=(NASA([100.00, 1817.04],
                     [ 3.61262577E+00, -1.00892952E-03,  2.49898347E-06,
                      -1.43375499E-09,  2.58635395E-13, -1.05110288E+03,
                       2.65270399E+00]),
                NASA([1817.04, 5000.00],
                     [ 2.97590593E+00,  1.64140468E-03, -7.19719150E-07,
                       1.25377103E-10, -7.91522188E-15, -1.02584593E+03,
                       5.53754353E+00])),
        transport=gas_transport(geom='linear',
                                diam=3.621,
                                well_depth=97.53,
                                polar=1.76,
                                rot_relax=4.0))

species(name=u'Ne',
        atoms='Ne:1',
        thermo=(NASA([200.00, 1000.00],
                     [ 2.50000000E+00,  0.00000000E+00,  0.00000000E+00,
                       0.00000000E+00,  0.00000000E+00, -7.45375000E+02,
                       3.35532000E+00]),
                NASA([1000.00, 6000.00],
                     [ 2.50000000E+00,  0.00000000E+00,  0.00000000E+00,
                       0.00000000E+00,  0.00000000E+00, -7.45375000E+02,
                       3.35532000E+00])),
        transport=gas_transport(geom='atom',
                                diam=3.758,
                                well_depth=148.6))

species(name=u'CHPD(1)',
        atoms='H:10 C:7',
        thermo=(NASA([100.00, 987.48],
                     [ 8.15066103E-01,  5.42246403E-02,  7.00713538E-06,
                      -4.80536609E-08,  2.21789780E-11,  8.89061378E+03,
                       7.61923423E+00]),
                NASA([987.48, 5000.00],
                     [ 1.63155700E+01,  2.86277169E-02, -1.06043899E-05,
                       1.97594338E-09, -1.42756911E-13,  4.01602565E+03,
                      -7.61478689E+01])),
        transport=gas_transport(geom='nonlinear',
                                diam=6.556,
                                well_depth=464.59))

species(name=u'O2(2)',
        atoms='O:2',
        thermo=(NASA([100.00, 1087.71],
                     [ 3.53763683E+00, -1.22827485E-03,  5.36758541E-06,
                      -4.93128012E-09,  1.45955076E-12, -1.03799025E+03,
                       4.67179818E+00]),
                NASA([1087.71, 5000.00],
                     [ 3.16427290E+00,  1.69453611E-03, -8.00335082E-07,
                       1.59029911E-10, -1.14890904E-14, -1.04844569E+03,
                       6.08302655E+00])),
        transport=gas_transport(geom='linear',
                                diam=3.467,
                                well_depth=106.7))

species(name=u'C7H9(3)',
        atoms='H:9 C:7',
        thermo=(NASA([100.00, 1067.28],
                     [ 1.05027839E+00,  5.48565263E-02, -1.71405371E-05,
                      -1.22374527E-08,  7.31413862E-12,  3.22645380E+04,
                       9.34224847E+00]),
                NASA([1067.28, 5000.00],
                     [ 1.24249805E+01,  3.19752168E-02, -1.27384903E-05,
                       2.35044165E-09, -1.64067372E-13,  2.87117225E+04,
                      -5.15442898E+01])),
        transport=gas_transport(geom='nonlinear',
                                diam=6.556,
                                well_depth=464.59))

species(name=u'C7H10(4)',
        atoms='H:10 C:7',
        thermo=(NASA([100.00, 980.34],
                     [ 9.28267728E-01,  5.26924046E-02,  5.52854458E-06,
                      -4.52831357E-08,  2.12066400E-11,  1.70247128E+04,
                       2.64843678E+01]),
                NASA([980.34, 5000.00],
                     [ 1.56612084E+01,  2.77120684E-02, -1.00058366E-05,
                       1.83676993E-09, -1.31769540E-13,  1.24477715E+04,
                      -5.29116880E+01])),
        transport=gas_transport(geom='nonlinear',
                                diam=5.831,
                                well_depth=413.561))

species(name=u'C7H11(5)',
        atoms='H:11 C:7',
        thermo=(NASA([100.00, 1011.64],
                     [ 6.34386667E-01,  6.15884528E-02, -1.58745404E-05,
                      -2.17020146E-08,  1.22709919E-11,  2.61969988E+04,
                       2.88252037E+01]),
                NASA([1011.64, 5000.00],
                     [ 1.49048255E+01,  3.21363021E-02, -1.21986138E-05,
                       2.23162207E-09, -1.56818202E-13,  2.19294791E+04,
                      -4.70082348E+01])),
        transport=gas_transport(geom='nonlinear',
                                diam=6.037,
                                well_depth=413.195))

species(name=u'C5H7O2(6)',
        atoms='H:8 C:5 O:2',
        thermo=(NASA([100.00, 1446.94],
                     [ 5.60970198E-01,  6.67549525E-02, -5.38306676E-05,
                       2.21666461E-08, -3.65485788E-12, -2.72351707E+03,
                       2.66722076E+01]),
                NASA([1446.94, 5000.00],
                     [ 1.60920708E+01,  2.38197737E-02, -9.32087335E-06,
                       1.65902054E-09, -1.11569987E-13, -7.21801490E+03,
                      -5.39942989E+01])),
        transport=gas_transport(geom='nonlinear',
                                diam=6.302,
                                well_depth=463.964))

species(name=u'C6H12O(7)',
        atoms='H:12 C:6 O:1',
        thermo=(NASA([100.00, 952.00],
                     [ 1.55561463E-01,  6.75971412E-02, -8.59135521E-06,
                      -4.39593443E-08,  2.38169108E-11, -3.26654601E+04,
                       2.82241125E+01]),
                NASA([952.00, 5000.00],
                     [ 1.99498605E+01,  2.58562792E-02, -8.09893300E-06,
                       1.40699032E-09, -1.00464869E-13, -3.83116392E+04,
                      -7.61582401E+01])),
        transport=gas_transport(geom='nonlinear',
                                diam=6.631,
                                well_depth=463.549))

species(name=u'C7H9O2(8)',
        atoms='H:9 C:7 O:2',
        thermo=(NASA([100.00, 1122.95],
                     [-4.75781512E-01,  8.68281887E-02, -6.88131302E-05,
                       2.47692603E-08, -2.68068391E-12,  1.50714407E+04,
                       1.61360917E+01]),
                NASA([1122.95, 5000.00],
                     [ 1.94856665E+01,  2.99141343E-02, -1.17431719E-05,
                       2.14080488E-09, -1.48088429E-13,  9.69363812E+03,
                      -8.64646028E+01])),
        transport=gas_transport(geom='nonlinear',
                                diam=7.315,
                                well_depth=538.331))

species(name=u'C7H9O(9)',
        atoms='H:9 C:7 O:1',
        thermo=(NASA([100.00, 995.65],
                     [ 2.32166935E-01,  6.80105849E-02, -2.23075586E-05,
                      -2.33246156E-08,  1.45866325E-11,  1.58732930E+04,
                       1.18776326E+01]),
                NASA([995.65, 5000.00],
                     [ 1.87752161E+01,  2.66676561E-02, -9.96945009E-06,
                       1.85764893E-09, -1.33863690E-13,  1.05375384E+04,
                      -8.57533031E+01])),
        transport=gas_transport(geom='nonlinear',
                                diam=7.125,
                                well_depth=522.3))

species(name=u'C7H9O2(10)',
        atoms='H:9 C:7 O:2',
        thermo=(NASA([100.00, 1334.73],
                     [-2.98001563E-01,  8.93610771E-02, -7.65882231E-05,
                       3.36256602E-08, -5.97054330E-12,  1.92561581E+04,
                       1.50308272E+01]),
                NASA([1334.73, 5000.00],
                     [ 1.80382185E+01,  3.44096896E-02, -1.48322770E-05,
                       2.77983604E-09, -1.92972923E-13,  1.43614032E+04,
                      -7.87249382E+01])),
        transport=gas_transport(geom='nonlinear',
                                diam=7.315,
                                well_depth=538.331))

species(name=u'C7H8(11)',
        atoms='H:8 C:7',
        thermo=(NASA([100.00, 948.56],
                     [ 9.76266400E-01,  4.70652860E-02,  2.43893946E-05,
                      -7.34678005E-08,  3.37231009E-11,  2.00320503E+04,
                       1.71407476E+01]),
                NASA([948.56, 5000.00],
                     [ 1.96257875E+01,  1.69207120E-02, -4.63449829E-06,
                       8.31537029E-10, -6.48622787E-14,  1.43121086E+04,
                      -8.33486126E+01])),
        transport=gas_transport(geom='nonlinear',
                                diam=6.335,
                                well_depth=465.787))

species(name=u'S(12)',
        atoms='H:10 C:7 O:2',
        thermo=(NASA([100.00, 1077.13],
                     [-7.21237024E-01,  9.02088123E-02, -6.33953282E-05,
                       1.45642754E-08,  1.45411189E-12, -3.19983045E+03,
                       1.62576477E+01]),
                NASA([1077.13, 5000.00],
                     [ 2.10576060E+01,  3.15774684E-02, -1.27256604E-05,
                       2.37775348E-09, -1.67793830E-13, -9.18204800E+03,
                      -9.64212764E+01])),
        transport=gas_transport(geom='nonlinear',
                                diam=7.315,
                                well_depth=538.331))

species(name=u'C7H8O(13)',
        atoms='H:8 C:7 O:1',
        thermo=(NASA([100.00, 927.64],
                     [ 7.08330300E-02,  3.22241492E-02,  1.52397063E-04,
                      -2.63242221E-07,  1.14090127E-10, -7.31071914E+03,
                      -3.33807705E+00]),
                NASA([927.64, 5000.00],
                     [ 4.53353353E+01, -2.32280499E-02,  1.61201681E-05,
                      -2.92506934E-09,  1.72920872E-13, -2.17204947E+04,
                      -2.50717792E+02])),
        transport=gas_transport(geom='nonlinear',
                                diam=6.565,
                                well_depth=480.418))

species(name=u'C7H8O(14)',
        atoms='H:8 C:7 O:1',
        thermo=(NASA([100.00, 974.25],
                     [ 2.61106650E+00, -4.63408865E-03,  1.76490698E-04,
                      -2.20654603E-07,  8.14193516E-11,  9.36054247E+03,
                       2.02195020E+01]),
                NASA([974.25, 5000.00],
                     [ 1.71087301E+01,  2.61756843E-02, -1.00262901E-05,
                       2.14763205E-09, -1.74992201E-13,  2.24862125E+03,
                      -7.13469253E+01])),
        transport=gas_transport(geom='nonlinear',
                                diam=6.565,
                                well_depth=480.418))

species(name=u'C7H9O4(15)',
        atoms='H:9 C:7 O:4',
        thermo=(NASA([100.00, 913.22],
                     [-3.30296036E-01,  3.72813761E-02,  1.77814188E-04,
                      -3.02410332E-07,  1.31750536E-10,  4.99081534E+03,
                       4.00044721E+01]),
                NASA([913.22, 5000.00],
                     [ 4.63503995E+01, -1.58854991E-02,  1.66299337E-05,
                      -3.32596304E-09,  2.10600920E-13, -9.84416415E+03,
                      -2.15507901E+02])),
        transport=gas_transport(geom='nonlinear',
                                diam=8.071,
                                well_depth=612.548))

species(name=u'C7H8O3(16)',
        atoms='H:8 C:7 O:3',
        thermo=(NASA([100.00, 919.04],
                     [ 6.43365376E-01,  1.89651249E-02,  1.94794062E-04,
                      -3.02416275E-07,  1.27480529E-10, -1.32967997E+04,
                       3.37098178E+01]),
                NASA([919.04, 5000.00],
                     [ 4.04312997E+01, -1.20826538E-02,  1.35007626E-05,
                      -2.63785195E-09,  1.60475667E-13, -2.66122360E+04,
                      -1.87539122E+02])),
        transport=gas_transport(geom='nonlinear',
                                diam=7.517,
                                well_depth=601.967))

species(name=u'S(17)',
        atoms='H:11 C:7 O:4',
        thermo=(NASA([100.00, 1083.12],
                     [-1.18804603E+00,  9.89562857E-02, -6.24639537E-05,
                       1.00552456E-08,  3.10113221E-12, -1.42140130E+04,
                       3.79239229E+01]),
                NASA([1083.12, 5000.00],
                     [ 2.14375274E+01,  4.04968090E-02, -1.62612258E-05,
                       3.01027430E-09, -2.10592570E-13, -2.05874223E+04,
                      -7.98338825E+01])),
        transport=gas_transport(geom='nonlinear',
                                diam=8.436,
                                well_depth=613.183))

species(name=u'S(18)',
        atoms='H:13 C:7 O:2',
        thermo=(NASA([100.00, 909.26],
                     [ 5.94422599E-02,  3.12312451E-02,  1.90069216E-04,
                      -3.07627593E-07,  1.32206347E-10, -2.98814463E+04,
                       3.28776162E+01]),
                NASA([909.26, 5000.00],
                     [ 4.16919084E+01, -6.88448801E-03,  1.36895388E-05,
                      -2.88342312E-09,  1.85116152E-13, -4.34477519E+04,
                      -1.96982976E+02])),
        transport=gas_transport(geom='nonlinear',
                                diam=8.142,
                                well_depth=578.842))

species(name=u'H(19)',
        atoms='H:1',
        thermo=(NASA([100.00, 4383.16],
                     [ 2.50000000E+00, -2.38914167E-13,  3.12709494E-16,
                      -1.33367320E-19,  1.74989654E-23,  2.54727081E+04,
                      -4.59566247E-01]),
                NASA([4383.16, 5000.00],
                     [ 2.50003447E+00, -3.04996987E-08,  1.01101187E-11,
                      -1.48796738E-15,  8.20356170E-20,  2.54726770E+04,
                      -4.59784534E-01])),
        transport=gas_transport(geom='atom',
                                diam=2.05,
                                well_depth=145.0))

species(name=u'O(20)',
        atoms='O:1',
        thermo=(NASA([100.00, 4383.16],
                     [ 2.50000000E+00, -2.38914167E-13,  3.12709494E-16,
                      -1.33367320E-19,  1.74989654E-23,  2.92267216E+04,
                       5.11106770E+00]),
                NASA([4383.16, 5000.00],
                     [ 2.50003447E+00, -3.04996987E-08,  1.01101187E-11,
                      -1.48796738E-15,  8.20356170E-20,  2.92266905E+04,
                       5.11084942E+00])),
        transport=gas_transport(geom='atom',
                                diam=2.75,
                                well_depth=80.0))

species(name=u'OH(21)',
        atoms='H:1 O:1',
        thermo=(NASA([100.00, 1005.24],
                     [ 3.48579318E+00,  1.33399885E-03, -4.70054183E-06,
                       5.64393447E-09, -2.06323747E-12,  3.41195714E+03,
                       1.99788624E+00]),
                NASA([1005.24, 5000.00],
                     [ 2.88226356E+00,  1.03866921E-03, -2.35641168E-07,
                       1.40204240E-11,  6.34789746E-16,  3.66955542E+03,
                       5.59047041E+00])),
        transport=gas_transport(geom='linear',
                                diam=2.75,
                                well_depth=80.0))

species(name=u'H2(22)',
        atoms='H:2',
        thermo=(NASA([100.00, 1962.86],
                     [ 3.42253780E+00,  2.86646024E-04, -4.14662326E-07,
                       4.27541429E-10, -9.38102659E-14, -1.02978492E+03,
                      -3.86364902E+00]),
                NASA([1962.86, 5000.00],
                     [ 2.74214292E+00,  5.79597460E-04,  1.97175640E-07,
                      -6.41040149E-11,  4.95963521E-15, -5.52011412E+02,
                       4.14362224E-01])),
        transport=gas_transport(geom='linear',
                                diam=2.833,
                                well_depth=59.7))

species(name=u'H2O(23)',
        atoms='H:2 O:1',
        thermo=(NASA([100.00, 1281.44],
                     [ 3.99881998E+00, -5.54830883E-04,  2.76774197E-06,
                      -1.55664942E-09,  3.02330299E-13, -3.02745569E+04,
                      -3.08941329E-02]),
                NASA([1281.44, 5000.00],
                     [ 3.19560339E+00,  1.95240061E-03, -1.67118548E-07,
                      -2.97937699E-11,  4.45138523E-15, -3.00687021E+04,
                       4.04334673E+00])),
        transport=gas_transport(geom='nonlinear',
                                diam=2.641,
                                well_depth=809.102,
                                polar=1.76,
                                rot_relax=4.0))

species(name=u'Ar(24)',
        atoms='Ar:1',
        thermo=(NASA([100.00, 4383.16],
                     [ 2.50000000E+00, -2.38914167E-13,  3.12709494E-16,
                      -1.33367320E-19,  1.74989654E-23, -7.45000000E+02,
                       4.36630363E+00]),
                NASA([4383.16, 5000.00],
                     [ 2.50003447E+00, -3.04996987E-08,  1.01101187E-11,
                      -1.48796738E-15,  8.20356170E-20, -7.45031138E+02,
                       4.36608535E+00])),
        transport=gas_transport(geom='atom',
                                diam=3.33,
                                well_depth=136.501))

species(name=u'He(25)',
        atoms='He:1',
        thermo=(NASA([100.00, 4383.16],
                     [ 2.50000000E+00, -2.38914167E-13,  3.12709494E-16,
                      -1.33367320E-19,  1.74989654E-23, -7.45000000E+02,
                       9.14221530E-01]),
                NASA([4383.16, 5000.00],
                     [ 2.50003447E+00, -3.04996987E-08,  1.01101187E-11,
                      -1.48796738E-15,  8.20356170E-20, -7.45031138E+02,
                       9.14003242E-01])),
        transport=gas_transport(geom='atom',
                                diam=2.576,
                                well_depth=10.2))

species(name=u'HO2(26)',
        atoms='H:1 O:2',
        thermo=(NASA([100.00, 923.90],
                     [ 4.02957107E+00, -2.63998930E-03,  1.52235427E-05,
                      -1.71678543E-08,  6.26771070E-12,  3.22676805E+02,
                       4.84424037E+00]),
                NASA([923.90, 5000.00],
                     [ 4.15129967E+00,  1.91151750E-03, -4.11307832E-07,
                       6.35037514E-11, -4.86452298E-15,  8.34341022E+01,
                       3.09359133E+00])),
        transport=gas_transport(geom='nonlinear',
                                diam=3.458,
                                well_depth=107.4,
                                rot_relax=1.0))

species(name=u'H2O2(27)',
        atoms='H:2 O:2',
        thermo=(NASA([100.00, 923.28],
                     [ 3.72866085E+00,  4.13388982E-03,  5.67454130E-06,
                      -1.01859637E-08,  4.28584486E-12, -1.76963955E+04,
                       5.35914855E+00]),
                NASA([923.28, 5000.00],
                     [ 4.95154573E+00,  3.54224941E-03, -1.01037852E-06,
                       1.61935079E-10, -1.10203774E-14, -1.81228053E+04,
                      -1.52927478E+00])),
        transport=gas_transport(geom='nonlinear',
                                diam=4.196,
                                well_depth=289.3))

species(name=u'CO(28)',
        atoms='C:1 O:1',
        thermo=(NASA([100.00, 1669.91],
                     [ 3.59709776E+00, -1.02424814E-03,  2.83338958E-06,
                      -1.75827500E-09,  3.42593462E-13, -1.43431899E+04,
                       3.45821758E+00]),
                NASA([1669.91, 5000.00],
                     [ 2.92790884E+00,  1.81937225E-03, -8.35341035E-07,
                       1.51276009E-10, -9.88923938E-15, -1.42926827E+04,
                       6.51184709E+00])),
        transport=gas_transport(geom='linear',
                                diam=3.69,
                                well_depth=91.7,
                                polar=1.76,
                                rot_relax=4.0))

species(name=u'CO2(29)',
        atoms='C:1 O:2',
        thermo=(NASA([100.00, 988.19],
                     [ 3.27789883E+00,  2.75786865E-03,  7.12771566E-06,
                      -1.07852526E-08,  4.14218887E-12, -4.84756030E+04,
                       5.97857134E+00]),
                NASA([988.19, 5000.00],
                     [ 4.55072680E+00,  2.90725847E-03, -1.14641692E-06,
                       2.25794394E-10, -1.69523485E-14, -4.89860152E+04,
                      -1.45670000E+00])),
        transport=gas_transport(geom='linear',
                                diam=3.941,
                                well_depth=195.201))

species(name=u'HCO(30)',
        atoms='H:1 C:1 O:1',
        thermo=(NASA([200.00, 1000.00],
                     [ 4.23755000E+00, -3.32075000E-03,  1.40030000E-05,
                      -1.34240000E-08,  4.37416000E-12,  3.87241000E+03,
                       3.30835000E+00]),
                NASA([1000.00, 6000.00],
                     [ 3.92002000E+00,  2.52279000E-03, -6.71004000E-07,
                       1.05616000E-10, -7.43798000E-15,  3.65343000E+03,
                       3.58077000E+00])),
        transport=gas_transport(geom='nonlinear',
                                diam=3.59,
                                well_depth=498.002))

species(name=u'C(T)(31)',
        atoms='C:1',
        thermo=(NASA([200.00, 1000.00],
                     [ 2.55424000E+00, -3.21538000E-04,  7.33792000E-07,
                      -7.32235000E-10,  2.66521000E-13,  8.54427000E+04,
                       4.53131000E+00]),
                NASA([1000.00, 6000.00],
                     [ 2.60558000E+00, -1.95934000E-04,  1.06737000E-07,
                      -1.64239000E-11,  8.18706000E-16,  8.54117000E+04,
                       4.19239000E+00])),
        transport=gas_transport(geom='atom',
                                diam=3.298,
                                well_depth=71.4))

species(name=u'CH(32)',
        atoms='H:1 C:1',
        thermo=(NASA([200.00, 1000.00],
                     [ 3.48976000E+00,  3.24322000E-04, -1.68998000E-06,
                       3.16284000E-09, -1.40618000E-12,  7.06126000E+04,
                       2.08428000E+00]),
                NASA([1000.00, 6000.00],
                     [ 2.52094000E+00,  1.76536000E-03, -4.61477000E-07,
                       5.92897000E-11, -3.34745000E-15,  7.09468000E+04,
                       7.40518000E+00])),
        transport=gas_transport(geom='linear',
                                diam=2.75,
                                well_depth=80.0))

species(name=u'CH2(T)(33)',
        atoms='H:2 C:1',
        thermo=(NASA([200.00, 1000.00],
                     [ 3.71758000E+00,  1.27391000E-03,  2.17347000E-06,
                      -3.48858000E-09,  1.65209000E-12,  4.58724000E+04,
                       1.75298000E+00]),
                NASA([1000.00, 6000.00],
                     [ 3.14632000E+00,  3.03671000E-03, -9.96474000E-07,
                       1.50484000E-10, -8.57336000E-15,  4.60413000E+04,
                       4.72342000E+00])),
        transport=gas_transport(geom='nonlinear',
                                diam=3.8,
                                well_depth=144.001))

species(name=u'CH3(34)',
        atoms='H:3 C:1',
        thermo=(NASA([200.00, 1000.00],
                     [ 3.65718000E+00,  2.12660000E-03,  5.45839000E-06,
                      -6.61810000E-09,  2.46571000E-12,  1.64227000E+04,
                       1.67354000E+00]),
                NASA([1000.00, 6000.00],
                     [ 2.97812000E+00,  5.79785000E-03, -1.97558000E-06,
                       3.07298000E-10, -1.79174000E-14,  1.65095000E+04,
                       4.72248000E+00])),
        transport=gas_transport(geom='nonlinear',
                                diam=3.8,
                                well_depth=144.001))

species(name=u'CH2O(35)',
        atoms='H:2 C:1 O:1',
        thermo=(NASA([200.00, 1000.00],
                     [ 4.79372000E+00, -9.90833000E-03,  3.73220000E-05,
                      -3.79285000E-08,  1.31773000E-11, -1.43792000E+04,
                       6.02798000E-01]),
                NASA([1000.00, 6000.00],
                     [ 3.16953000E+00,  6.19321000E-03, -2.25056000E-06,
                       3.65976000E-10, -2.20149000E-14, -1.45487000E+04,
                       6.04208000E+00])),
        transport=gas_transport(geom='nonlinear',
                                diam=3.59,
                                well_depth=498.002,
                                rot_relax=2.0))

species(name=u'HCCO(36)',
        atoms='H:1 C:2 O:1',
        thermo=(NASA([200.00, 1000.00],
                     [ 1.87608000E+00,  2.21205000E-02, -3.58869000E-05,
                       3.05403000E-08, -1.01281000E-11,  2.01634000E+04,
                       1.36968000E+01]),
                NASA([1000.00, 6000.00],
                     [ 5.91479000E+00,  3.71409000E-03, -1.30137000E-06,
                       2.06473000E-10, -1.21477000E-14,  1.93596000E+04,
                      -5.50567000E+00])),
        transport=gas_transport(geom='nonlinear',
                                diam=2.5,
                                well_depth=150.001,
                                rot_relax=1.0))

species(name=u'C2H(37)',
        atoms='H:1 C:2',
        thermo=(NASA([200.00, 1000.00],
                     [ 2.89868000E+00,  1.32988000E-02, -2.80733000E-05,
                       2.89485000E-08, -1.07502000E-11,  6.70616000E+04,
                       6.18548000E+00]),
                NASA([1000.00, 6000.00],
                     [ 3.66270000E+00,  3.82492000E-03, -1.36633000E-06,
                       2.13455000E-10, -1.23217000E-14,  6.71684000E+04,
                       3.92206000E+00])),
        transport=gas_transport(geom='linear',
                                diam=4.1,
                                well_depth=209.001,
                                rot_relax=2.5))

species(name=u'C2H2(38)',