units(length='cm', time='s', quantity='mol', act_energy='kcal/mol')

ideal_gas(name='gas',
          elements="H D T C Ci O Oi N Ne Ar He Si S Cl X",
          species="""N2          Ne          C7H16(1)    O2(2)
                     H(3)        O(4)        OH(5)       H2(6)
                     H2O(7)      Ar(8)       He(9)       HO2(10)
                     H2O2(11)    CO(12)      CO2(13)     HOCO(14)
                     CH2O(15)    HCO(16)     CH3(17)     CH4(18)
                     CH2(19)     CH(20)      C2H4(21)    CH3OH(22)
                     CH2(S)(23)  CH2OH(24)   CH3O(25)    HCOH(26)
                     CH3OO(27)   CH2CO(28)   C2H5(29)    C2H3(30)
                     C(31)       C2H2(32)    C2H(33)     CH3OOH(34)
                     CH2OOH(35)  C2H6(36)    CH3CHO(37)  C2H5O(38)
                     C2H5O2(39)  CH2CHO(40)  H2CC(41)    C2H4O(42)
                     C2H5O(43)   cC2H4O(44)  C2H5O2(45)  C2H3O2(46)
                     CHCHO(47)   OCHCHO(48)  HCCO(49)    HCCOH(50)
                     CHCHOH(51)  C2(52)      C2O(53)     C2H6O(54)
                     C2H5O(55)   C2H5O3(56)  CH3CO(57)   cC2H3O(58)
                     HOCHO(59)   C2H3O3(60)  OCHCO(61)   C2H6O2(62)
                     C2H5O2(63)  C2H4O2(64)  HOCH2O(65)  OCHO(66)
                     C2H4O3(67)  C2H3O2(68)  C3H6O(70)   C2H5CO(71)
                     C3H6(72)    C3H5(74)    C3H4O(77)   C3H4O(79)
                     C4H9(82)    C3H7(83)    C5H11(84)   C7H15(85)
                     C7H15(86)   C6H13(87)   C7H15(88)   C7H15(89)
                     C2H4(91)    C4H8(106)   C4H9(111)   C5H10(113)
                     C3H7(121)   S(134)      S(135)      S(136)
                     C2H4O(141)  S(145)      S(147)      C6H13(180)
                     C6H12(184)  S(203)      S(204)      S(205)
                     S(209)      S(232)      S(237)      S(238)
                     S(240)      S(253)      S(258)      S(259)
                     S(261)      S(271)      S(276)      S(277)
                     CH2O3(283)  S(401)      S(416)      C3H7O(417)
                     CHO3(420)   CHO3(424)   S(430)      S(447)
                     S(486)      S(506)      C4H6O(639)  C4H7(681)
                     C4H8(684)   S(713)      S(722)      S(854)
                     C5H9(1107)  S(1123)     S(1135)     S(1314)
                     S(1315)     S(1333)     S(1402)     S(1410)
                     S(1441)     S(1495)     S(1514)     S(1593)
                     S(1594)     C4H8(1601)  S(1699)     S(2000)
                     S(2237)     S(2238)     S(2263)     S(2264)
                     S(2278)     S(2282)     S(2324)     S(2338)
                     S(2360)     S(2388)     S(2402)     C4H6(2405)
                     C4H6(2407)  S(2595)     S(2596)     S(2700)
                     C4H6(2876)  S(2877)     S(2898)     S(3128)
                     S(3168)     S(3173)     S(3210)     S(3467)
                     S(3483)     S(3491)     S(3492)     S(3542)
                     S(3568)     S(3578)     S(3695)     S(3698)
                     S(3800)     S(3836)     S(4269)     S(4281)
                     O2(4335)    S(4336)     S(4621)     S(4819)
                     S(4844)     S(4893)     S(4907)     S(4909)
                     S(4914)     S(4998)     S(5007)     S(5015)
                     S(5027)     S(5331)     S(5582)     S(5767)
                     S(5771)     S(5886)     S(5887)     S(5889)
                     S(5897)     S(5904)     S(5905)     S(5924)
                     S(5927)     S(5928)     S(5931)     S(5935)
                     S(5943)     S(5950)     S(6385)     S(6687)
                     S(6939)     S(7311)     S(7432)     S(7435)
                     S(7464)     S(7882)     S(7898)     S(7901)
                     S(8572)     S(8573)     S(8610)     S(8611)
                     S(8843)     S(10035)    S(10104)    S(10119)
                     S(10219)    S(10272)    S(11427)    S(11465)
                     S(11516)    S(11517)    S(12491)    S(12664)
                     S(12666)    S(12742)    S(12867)    S(13334)
                     S(13408)    S(13421)    S(13432)    S(13667)
                     S(14756)    S(14757)    S(14912)    S(14921)
                     S(15927)    S(15935)    S(15938)    S(16021)
                     S(16038)    S(16045)    S(16292)    S(16754)
                     S(17218)    S(17271)    S(17370)    S(17373)
                     S(17738)    S(18188)    S(18189)    S(18684)
                     S(19055)    S(19065)    S(19737)    S(20148)
                     S(20149)    S(20159)    S(20168)    S(20848)
                     S(20945)    S(21042)    S(21370)    S(21864)
                     S(22125)    S(22126)    S(22517)    S(22544)
                     S(22608)    S(22705)    S(22709)    S(22714)
                     S(23310)    S(23318)    S(23451)    S(23822)
                     S(24022)    S(24023)    S(24024)    S(24031)
                     S(24585)    S(24597)    S(24604)    S(24607)
                     S(24777)    S(24778)    S(25179)    S(25747)
                     S(26936)    S(26946)    S(26953)    S(27417)
                     S(27418)    S(27750)    S(28364)    S(28368)
                     S(28375)    S(28503)    S(29644)    S(29657)
                     S(29754)    S(29756)    S(29888)    S(29894)
                     S(30659)    S(30842)    S(31110)    S(31738)
                     S(32193)    S(32195)    S(32938)    S(33064)
                     S(33079)    S(33080)    S(33138)    S(33145)
                     S(33968)    S(34483)    S(34492)    S(35252)
                     S(35253)""",
          reactions='all',
          transport='Mix',
          initial_state=state(temperature=300.0, pressure=OneAtm))

#-------------------------------------------------------------------------------
# Element data
#-------------------------------------------------------------------------------

element(symbol=u'X', atomic_mass=195.083)
element(symbol=u'Ci', atomic_mass=13.003)
element(symbol=u'D', atomic_mass=2.014)
element(symbol=u'Oi', atomic_mass=18.0)
element(symbol=u'T', atomic_mass=3.016)
#-------------------------------------------------------------------------------
# Species data
#-------------------------------------------------------------------------------

species(name=u'N2',
        atoms='N:2',
        thermo=(NASA([100.00, 1817.04],
                     [ 3.61262583E+00, -1.00893007E-03,  2.49898478E-06,
                      -1.43375608E-09,  2.58635681E-13, -1.05110288E+03,
                       2.65270376E+00]),
                NASA([1817.04, 5000.00],
                     [ 2.97590177E+00,  1.64141027E-03, -7.19721837E-07,
                       1.25377654E-10, -7.91526282E-15, -1.02584357E+03,
                       5.53756806E+00])),
        transport=gas_transport(geom='linear',
                                diam=3.621,
                                well_depth=97.53,
                                polar=1.76,
                                rot_relax=4.0))

species(name=u'Ne',
        atoms='Ne:1',
        thermo=(NASA([200.00, 1000.00],
                     [ 2.50000000E+00,  0.00000000E+00,  0.00000000E+00,
                       0.00000000E+00,  0.00000000E+00, -7.45375000E+02,
                       3.35532000E+00]),
                NASA([1000.00, 6000.00],
                     [ 2.50000000E+00,  0.00000000E+00,  0.00000000E+00,
                       0.00000000E+00,  0.00000000E+00, -7.45375000E+02,
                       3.35532000E+00])),
        transport=gas_transport(geom='atom',
                                diam=3.758,
                                well_depth=148.6))

species(name=u'C7H16(1)',
        atoms='H:16 C:7',
        thermo=(NASA([100.00, 1262.73],
                     [-2.91681405E-03,  7.69373649E-02, -3.48025563E-05,
                       1.86095180E-09,  2.01573617E-12, -2.57829342E+04,
                       3.00312148E+01]),
                NASA([1262.73, 5000.00],
                     [ 1.38377915E+01,  4.85945016E-02, -1.95474548E-05,
                       3.52837178E-09, -2.39064676E-13, -3.05141556E+04,
                      -4.48642836E+01])),
        transport=gas_transport(geom='nonlinear',
                                diam=6.366,
                                well_depth=402.997))

species(name=u'O2(2)',
        atoms='O:2',
        thermo=(NASA([100.00, 1087.71],
                     [ 3.53763686E+00, -1.22827512E-03,  5.36758632E-06,
                      -4.93128124E-09,  1.45955121E-12, -1.03799025E+03,
                       4.67179809E+00]),
                NASA([1087.71, 5000.00],
                     [ 3.16427276E+00,  1.69453634E-03, -8.00335210E-07,
                       1.59029941E-10, -1.14890929E-14, -1.04844563E+03,
                       6.08302733E+00])),
        transport=gas_transport(geom='linear',
                                diam=3.467,
                                well_depth=106.7))

species(name=u'H(3)',
        atoms='H:1',
        thermo=(NASA([100.00, 3459.60],
                     [ 2.50000000E+00,  9.24384602E-15, -1.36779837E-17,
                       6.66184769E-21, -1.00106912E-24,  2.54727081E+04,
                      -4.59566246E-01]),
                NASA([3459.60, 5000.00],
                     [ 2.49999999E+00,  9.20455546E-12, -3.58608293E-15,
                       6.15198922E-19, -3.92041801E-23,  2.54727081E+04,
                      -4.59566192E-01])),
        transport=gas_transport(geom='atom',
                                diam=2.05,
                                well_depth=145.0))

species(name=u'O(4)',
        atoms='O:1',
        thermo=(NASA([100.00, 3459.60],
                     [ 2.50000000E+00,  9.24384602E-15, -1.36779837E-17,
                       6.66184769E-21, -1.00106912E-24,  2.92267216E+04,
                       5.11106770E+00]),
                NASA([3459.60, 5000.00],
                     [ 2.49999999E+00,  9.20455546E-12, -3.58608293E-15,
                       6.15198922E-19, -3.92041801E-23,  2.92267216E+04,
                       5.11106776E+00])),
        transport=gas_transport(geom='atom',
                                diam=2.75,
                                well_depth=80.0))

species(name=u'OH(5)',
        atoms='H:1 O:1',
        thermo=(NASA([100.00, 1005.25],
                     [ 3.48579580E+00,  1.33396761E-03, -4.70043127E-06,
                       5.64379019E-09, -2.06317589E-12,  3.41195703E+03,
                       1.99787688E+00]),
                NASA([1005.25, 5000.00],
                     [ 2.88225261E+00,  1.03868777E-03, -2.35651841E-07,
                       1.40229397E-11,  6.34581421E-16,  3.66956005E+03,
                       5.59053215E+00])),
        transport=gas_transport(geom='linear',
                                diam=2.75,
                                well_depth=80.0))

species(name=u'H2(6)',
        atoms='H:2',
        thermo=(NASA([100.00, 1962.85],
                     [ 3.42253762E+00,  2.86647569E-04, -4.14665826E-07,
                       4.27544171E-10, -9.38109437E-14, -1.02978491E+03,
                      -3.86364834E+00]),
                NASA([1962.85, 5000.00],
                     [ 2.74216175E+00,  5.79573021E-04,  1.97187073E-07,
                      -6.41063082E-11,  4.95980228E-15, -5.52022532E+02,
                       4.14250606E-01])),
        transport=gas_transport(geom='linear',
                                diam=2.833,
                                well_depth=59.7))

species(name=u'H2O(7)',
        atoms='H:2 O:1',
        thermo=(NASA([100.00, 1281.44],
                     [ 3.99882000E+00, -5.54831105E-04,  2.76774252E-06,
                      -1.55664990E-09,  3.02330437E-13, -3.02745569E+04,
                      -3.08942233E-02]),
                NASA([1281.44, 5000.00],
                     [ 3.19560359E+00,  1.95240027E-03, -1.67118352E-07,
                      -2.97938167E-11,  4.45138915E-15, -3.00687022E+04,
                       4.04334565E+00])),
        transport=gas_transport(geom='nonlinear',
                                diam=2.641,
                                well_depth=809.102,
                                polar=1.76,
                                rot_relax=4.0))

species(name=u'Ar(8)',
        atoms='Ar:1',
        thermo=(NASA([100.00, 3459.60],
                     [ 2.50000000E+00,  9.24384602E-15, -1.36779837E-17,
                       6.66184769E-21, -1.00106912E-24, -7.45000000E+02,
                       4.36630363E+00]),
                NASA([3459.60, 5000.00],
                     [ 2.49999999E+00,  9.20455546E-12, -3.58608293E-15,
                       6.15198922E-19, -3.92041801E-23, -7.44999993E+02,
                       4.36630369E+00])),
        transport=gas_transport(geom='atom',
                                diam=3.33,
                                well_depth=136.501))

species(name=u'He(9)',
        atoms='He:1',
        thermo=(NASA([100.00, 3459.60],
                     [ 2.50000000E+00,  9.24384602E-15, -1.36779837E-17,
                       6.66184769E-21, -1.00106912E-24, -7.45000000E+02,
                       9.14221530E-01]),
                NASA([3459.60, 5000.00],
                     [ 2.49999999E+00,  9.20455546E-12, -3.58608293E-15,
                       6.15198922E-19, -3.92041801E-23, -7.44999993E+02,
                       9.14221584E-01])),
        transport=gas_transport(geom='atom',
                                diam=2.576,
                                well_depth=10.2))

species(name=u'HO2(10)',
        atoms='H:1 O:2',
        thermo=(NASA([100.00, 923.91],
                     [ 4.02955993E+00, -2.63985086E-03,  1.52230248E-05,
                      -1.71671332E-08,  6.26738052E-12,  3.22677279E+02,
                       4.84427984E+00]),
                NASA([923.91, 5000.00],
                     [ 4.15133254E+00,  1.91146014E-03, -4.11274138E-07,
                       6.34956851E-11, -4.86384723E-15,  8.34207514E+01,
                       3.09340719E+00])),
        transport=gas_transport(geom='nonlinear',
                                diam=3.458,
                                well_depth=107.4,
                                rot_relax=1.0))

species(name=u'H2O2(11)',
        atoms='H:2 O:2',
        thermo=(NASA([100.00, 923.27],
                     [ 3.72867429E+00,  4.13372266E-03,  5.67516696E-06,
                      -1.01868353E-08,  4.28624417E-12, -1.76963961E+04,
                       5.35910090E+00]),
                NASA([923.27, 5000.00],
                     [ 4.95150616E+00,  3.54231848E-03, -1.01041910E-06,
                       1.61944794E-10, -1.10211913E-14, -1.81227893E+04,
                      -1.52905314E+00])),
        transport=gas_transport(geom='nonlinear',
                                diam=4.196,
                                well_depth=289.3))

species(name=u'CO(12)',
        atoms='C:1 O:1',
        thermo=(NASA([100.00, 1669.93],
                     [ 3.59709666E+00, -1.02423781E-03,  2.83336350E-06,
                      -1.75825191E-09,  3.42586966E-13, -1.43431899E+04,
                       3.45822175E+00]),
                NASA([1669.93, 5000.00],
                     [ 2.92795649E+00,  1.81930595E-03, -8.35308214E-07,
                       1.51269114E-10, -9.88871766E-15, -1.42927086E+04,
                       6.51156822E+00])),
        transport=gas_transport(geom='linear',
                                diam=3.69,
                                well_depth=91.7,
                                polar=1.76,
                                rot_relax=4.0))

species(name=u'CO2(13)',
        atoms='C:1 O:2',
        thermo=(NASA([100.00, 988.19],
                     [ 3.27790244E+00,  2.75782522E-03,  7.12787107E-06,
                      -1.07854581E-08,  4.14227785E-12, -4.84756031E+04,
                       5.97855846E+00]),
                NASA([988.19, 5000.00],
                     [ 4.55071273E+00,  2.90728244E-03, -1.14643077E-06,
                       2.25797669E-10, -1.69526203E-14, -4.89860093E+04,
                      -1.45662083E+00])),
        transport=gas_transport(geom='linear',
                                diam=3.941,
                                well_depth=195.201))

species(name=u'HOCO(14)',
        atoms='H:1 C:1 O:2',
        thermo=(NASA([200.00, 998.40],
                     [ 2.82191000E+00,  9.66218000E-03, -2.78560000E-06,
                      -4.12692000E-09,  2.61472000E-12, -2.35465000E+04,
                       1.14285000E+01]),
                NASA([998.40, 3000.00],
                     [ 4.63989000E+00,  5.66363000E-03, -2.67855000E-06,
                       6.17049000E-10, -5.60954000E-14, -2.40527000E+04,
                       1.90175000E+00])),
        transport=gas_transport(geom='nonlinear',
                                diam=3.59,
                                well_depth=498.0,
                                rot_relax=2.0))

species(name=u'CH2O(15)',
        atoms='H:2 C:1 O:1',
        thermo=(NASA([200.00, 1000.00],
                     [ 4.79372000E+00, -9.90833000E-03,  3.73220000E-05,
                      -3.79285000E-08,  1.31773000E-11, -1.43792000E+04,
                       6.02798000E-01]),
                NASA([1000.00, 6000.00],
                     [ 3.16953000E+00,  6.19321000E-03, -2.25056000E-06,
                       3.65976000E-10, -2.20149000E-14, -1.45487000E+04,
                       6.04208000E+00])),
        transport=gas_transport(geom='nonlinear',
                                diam=3.59,
                                well_depth=498.002,
                                rot_relax=2.0))

species(name=u'HCO(16)',
        atoms='H:1 C:1 O:1',
        thermo=(NASA([200.00, 1000.00],
                     [ 4.23755000E+00, -3.32075000E-03,  1.40030000E-05,
                      -1.34240000E-08,  4.37416000E-12,  3.87241000E+03,
                       3.30835000E+00]),
                NASA([1000.00, 6000.00],
                     [ 3.92002000E+00,  2.52279000E-03, -6.71004000E-07,
                       1.05616000E-10, -7.43798000E-15,  3.65343000E+03,
                       3.58077000E+00])),
        transport=gas_transport(geom='nonlinear',
                                diam=3.59,
                                well_depth=498.002))

species(name=u'CH3(17)',
        atoms='H:3 C:1',
        thermo=(NASA([200.00, 1000.00],
                     [ 3.65718000E+00,  2.12660000E-03,  5.45839000E-06,
                      -6.61810000E-09,  2.46571000E-12,  1.64227000E+04,
                       1.67354000E+00]),
                NASA([1000.00, 6000.00],
                     [ 2.97812000E+00,  5.79785000E-03, -1.97558000E-06,
                       3.07298000E-10, -1.79174000E-14,  1.65095000E+04,
                       4.72248000E+00])),
        transport=gas_transport(geom='nonlinear',
                                diam=3.8,
                                well_depth=144.001))

species(name=u'CH4(18)',
        atoms='H:4 C:1',
        thermo=(NASA([200.00, 1000.00],
                     [ 5.14826000E+00, -1.37002000E-02,  4.93749000E-05,
                      -4.91952000E-08,  1.70097000E-11, -1.02453000E+04,
                      -4.63323000E+00]),
                NASA([1000.00, 6000.00],
                     [ 1.91179000E+00,  9.60268000E-03, -3.38388000E-06,
                       5.38797000E-10, -3.19307000E-14, -1.00992000E+04,
                       8.48242000E+00])),
        transport=gas_transport(geom='nonlinear',
                                diam=3.746,
                                well_depth=141.4,
                                polar=2.6,
                                rot_relax=13.0))

species(name=u'CH2(19)',
        atoms='H:2 C:1',
        thermo=(NASA([200.00, 1000.00],
                     [ 3.83280000E+00,  2.24446000E-04,  4.68033000E-06,
                      -6.04743000E-09,  2.59009000E-12,  4.59208000E+04,
                       1.40666000E+00]),
                NASA([1000.00, 3000.00],
                     [ 3.16229000E+00,  2.81798000E-03, -7.56235000E-07,
                       5.05446000E-11,  5.65236000E-15,  4.60991000E+04,
                       4.77656000E+00])),
        transport=gas_transport(geom='nonlinear',
                                diam=3.8,
                                well_depth=144.001))

species(name=u'CH(20)',
        atoms='H:1 C:1',
        thermo=(NASA([200.00, 1000.00],
                     [ 3.47159000E+00,  4.04745000E-04, -1.89388000E-06,
                       3.33210000E-09, -1.51271000E-12,  7.07018000E+04,
                       2.14542000E+00]),
                NASA([1000.00, 3000.00],
                     [ 2.66195000E+00,  1.70245000E-03, -6.83824000E-07,
                       1.30980000E-10, -9.71843000E-15,  7.09589000E+04,
                       6.52673000E+00])),
        transport=gas_transport(geom='linear',
                                diam=2.75,
                                well_depth=80.0))

species(name=u'C2H4(21)',
        atoms='H:4 C:2',
        thermo=(NASA([200.00, 1000.00],
                     [ 3.95920000E+00, -7.57051000E-03,  5.70990000E-05,
                      -6.91588000E-08,  2.69884000E-11,  5.08978000E+03,
                       4.09730000E+00]),
                NASA([1000.00, 6000.00],
                     [ 3.99183000E+00,  1.04834000E-02, -3.71721000E-06,
                       5.94628000E-10, -3.53630000E-14,  4.26866000E+03,
                      -2.69082000E-01])),
        transport=gas_transport(geom='nonlinear',
                                diam=3.971,
                                well_depth=280.801,
                                rot_relax=1.5))

species(name=u'CH3OH(22)',
        atoms='H:4 C:1 O:1',
        thermo=(NASA([200.00, 1000.00],
                     [ 5.65851000E+00, -1.62983000E-02,  6.91938000E-05,
                      -7.58373000E-08,  2.80428000E-11, -2.56120000E+04,
                      -8.97331000E-01]),
                NASA([1000.00, 6000.00],
                     [ 3.52727000E+00,  1.03179000E-02, -3.62893000E-06,
                       5.77448000E-10, -3.42183000E-14, -2.60029000E+04,
                       5.16759000E+00])),
        transport=gas_transport(geom='nonlinear',
                                diam=3.626,
                                well_depth=481.802,
                                rot_relax=1.0))

species(name=u'CH2(S)(23)',
        atoms='H:2 C:1',
        thermo=(NASA([200.00, 1000.00],
                     [ 4.19195000E+00, -2.30793000E-03,  8.05090000E-06,
                      -6.60123000E-09,  1.95638000E-12,  5.04843000E+04,
                      -7.54589000E-01]),
                NASA([1000.00, 3000.00],
                     [ 2.28556000E+00,  4.60255000E-03, -1.97412000E-06,
                       4.09548000E-10, -3.34695000E-14,  5.09224000E+04,
                       8.67684000E+00])),
        transport=gas_transport(geom='nonlinear',
                                diam=3.8,
                                well_depth=144.001))

species(name=u'CH2OH(24)',
        atoms='H:3 C:1 O:1',
        thermo=(NASA([200.00, 1000.00],
                     [ 4.47834000E+00, -1.35070000E-03,  2.78485000E-05,
                      -3.64869000E-08,  1.47907000E-11, -3.50073000E+03,
                       3.30913000E+00]),
                NASA([1000.00, 6000.00],
                     [ 5.09314000E+00,  5.94761000E-03, -2.06497000E-06,
                       3.23008000E-10, -1.88126000E-14, -4.03410000E+03,
                      -1.84691000E+00])),
        transport=gas_transport(geom='nonlinear',
                                diam=3.69,
                                well_depth=417.002,
                                dipole=1.7,
                                rot_relax=2.0))

species(name=u'CH3O(25)',
        atoms='H:3 C:1 O:1',
        thermo=(NASA([200.00, 1000.00],
                     [ 3.71181000E+00, -2.80463000E-03,  3.76551000E-05,
                      -4.73072000E-08,  1.86588000E-11,  1.29570000E+03,
                       6.57241000E+00]),
                NASA([1000.00, 6000.00],
                     [ 4.75779000E+00,  7.44142000E-03, -2.69705000E-06,
                       4.38091000E-10, -2.63537000E-14,  3.78112000E+02,
                      -1.96680000E+00])),
        transport=gas_transport(geom='nonlinear',
                                diam=3.69,
                                well_depth=417.002,
                                dipole=1.7,
                                rot_relax=2.0))

species(name=u'HCOH(26)',
        atoms='H:2 C:1 O:1',
        thermo=(NASA([200.00, 1000.00],
                     [ 4.65733000E+00, -9.53742000E-03,  4.04679000E-05,
                      -4.45318000E-08,  1.64762000E-11,  1.38615000E+04,
                       1.97861000E+00]),
                NASA([1000.00, 6000.00],
                     [ 3.65237000E+00,  5.55807000E-03, -1.97617000E-06,
                       3.16823000E-10, -1.88748000E-14,  1.35536000E+04,
                       4.22141000E+00])),
        transport=gas_transport(geom='nonlinear',
                                diam=4.443,
                                well_depth=110.7))

species(name=u'CH3OO(27)',
        atoms='H:3 C:1 O:2',
        thermo=(NASA([298.00, 1000.00],
                     [ 2.93065000E+00,  8.68504000E-03,  8.80315000E-06,
                      -1.39561000E-08,  5.02940000E-12,  2.27483000E+02,
                       1.28755000E+01]),
                NASA([1000.00, 3000.00],
                     [ 2.88425000E+00,  1.40068000E-02, -6.88364000E-06,
                       1.63790000E-09, -1.53129000E-13, -2.00433000E+01,
                       1.18153000E+01])),
        transport=gas_transport(geom='nonlinear',
                                diam=3.69,
                                well_depth=417.0,
                                dipole=1.7,
                                rot_relax=2.0))

species(name=u'CH2CO(28)',
        atoms='H:2 C:2 O:1',
        thermo=(NASA([200.00, 1000.00],
                     [ 2.13241000E+00,  1.81319000E-02, -1.74093000E-05,
                       9.35336000E-09, -2.01725000E-12, -7.14809000E+03,
                       1.33808000E+01]),
                NASA([1000.00, 6000.00],
                     [ 5.75871000E+00,  6.35124000E-03, -2.25955000E-06,
                       3.62322000E-10, -2.15856000E-14, -8.08533000E+03,
                      -4.96490000E+00])),
        transport=gas_transport(geom='nonlinear',
                                diam=3.97,
                                well_depth=436.001,
                                rot_relax=2.0))

species(name=u'C2H5(29)',
        atoms='H:5 C:2',
        thermo=(NASA([200.00, 1000.00],
                     [ 4.24186000E+00, -3.56905000E-03,  4.82667000E-05,
                      -5.85401000E-08,  2.25805000E-11,  1.29690000E+04,
                       4.44704000E+00]),
                NASA([1000.00, 6000.00],
                     [ 4.32196000E+00,  1.23931000E-02, -4.39681000E-06,
                       7.03520000E-10, -4.18435000E-14,  1.21759000E+04,
                       1.71104000E-01])),
        transport=gas_transport(geom='nonlinear',
                                diam=4.302,
                                well_depth=252.301,
                                rot_relax=1.5))

species(name=u'C2H3(30)',
        atoms='H:3 C:2',
        thermo=(NASA([200.00, 1000.00],
                     [ 3.36378000E+00,  2.65766000E-04,  2.79621000E-05,
                      -3.72987000E-08,  1.51590000E-11,  3.44750000E+04,
                       7.91510000E+00]),
                NASA([1000.00, 6000.00],
                     [ 4.15027000E+00,  7.54021000E-03, -2.62998000E-06,
                       4.15974000E-10, -2.45408000E-14,  3.38566000E+04,
                       1.72812000E+00])),
        transport=gas_transport(geom='nonlinear',
                                diam=4.1,
                                well_depth=209.001,
                                rot_relax=1.0))

species(name=u'C(31)',
        atoms='C:1',
        thermo=(NASA([200.00, 1000.00],
                     [ 2.49975000E+00,  5.02139000E-07,  1.93093000E-09,
                      -4.94633000E-12,  2.74089000E-15,  8.54858000E+04,
                       3.66241000E+00]),
                NASA([1000.00, 3000.00],
                     [ 2.49891000E+00,  2.41252000E-06, -1.88942000E-09,
                       6.24309000E-13, -7.45464000E-17,  8.54862000E+04,
                       3.66710000E+00])),
        transport=gas_transport(geom='atom',
                                diam=3.298,
                                well_depth=71.4))

species(name=u'C2H2(32)',
        atoms='H:2 C:2',
        thermo=(NASA([200.00, 1000.00],
                     [ 8.08680000E-01,  2.33616000E-02, -3.55172000E-05,
                       2.80153000E-08, -8.50075000E-12,  2.64290000E+04,
                       1.39397000E+01]),
                NASA([1000.00, 6000.00],
                     [ 4.65878000E+00,  4.88397000E-03, -1.60829000E-06,
                       2.46975000E-10, -1.38606000E-14,  2.57594000E+04,
                      -3.99838000E+00])),
        transport=gas_transport(geom='linear',
                                diam=4.1,
                                well_depth=209.001,
                                rot_relax=2.5))

species(name=u'C2H(33)',
        atoms='H:1 C:2',
        thermo=(NASA([200.00, 1000.00],
                     [ 2.89868000E+00,  1.32988000E-02, -2.80733000E-05,
                       2.89485000E-08, -1.07502000E-11,  6.70616000E+04,
                       6.18548000E+00]),
                NASA([1000.00, 6000.00],
                     [ 3.66270000E+00,  3.82492000E-03, -1.36633000E-06,
                       2.13455000E-10, -1.23217000E-14,  6.71684000E+04,
                       3.92206000E+00])),