units(length='cm', time='s', quantity='mol', act_energy='kcal/mol')

ideal_gas(name='gas',
          elements="H D T C Ci O Oi N Ne Ar He Si S Cl X",
          species="""N2          Ne          CHPD(1)     O2(2)
                     C7H9(3)     C7H10(4)    C7H11(5)    C5H7O2(6)
                     C6H12O(7)   C7H9O2(8)   C7H9O(9)    C7H9O2(10)
                     C7H8(11)    S(12)       C7H8O(13)   C7H8O(14)
                     C7H9O4(15)  C7H8O3(16)  S(17)       S(18)
                     H(19)       O(20)       OH(21)      H2(22)
                     H2O(23)     Ar(24)      He(25)      HO2(26)
                     H2O2(27)    CO(28)      CO2(29)     HOCO(30)
                     CH2O(31)    HCO(32)     CH3(33)     CH4(34)
                     CH2(35)     CH(36)      C2H4(37)    CH3OH(38)
                     CH2(S)(39)  CH2OH(40)   CH3O(41)    HCOH(42)
                     CH3OO(43)   CH2CO(44)   C2H5(45)    C2H3(46)
                     C(47)       C2H2(48)    C2H(49)     CH3OOH(50)
                     CH2OOH(51)  C2H6(52)    CH3CHO(53)  C2H5O(54)
                     C2H5O2(55)  CH2CHO(56)  H2CC(57)    C2H4O(58)
                     C2H5O(59)   cC2H4O(60)  C2H5O2(61)  C2H3O2(62)
                     CHCHO(63)   OCHCHO(64)  HCCO(65)    HCCOH(66)
                     CHCHOH(67)  C2(68)      C2O(69)     C2H6O(70)
                     C2H5O(71)   C2H5O3(72)  CH3CO(73)   cC2H3O(74)
                     HOCHO(75)   C2H3O3(76)  OCHCO(77)   C2H6O2(78)
                     C2H5O2(79)  C2H4O2(80)  HOCH2O(81)  OCHO(82)
                     C2H4O3(83)  C2H3O2(84)  C7H9(98)    C7H10(111)
                     C7H10(114)  C7H11(115)  C7H9(184)   S(188)
                     S(189)      C5H7(191)   C7H10(219)  C7H8(236)
                     S(252)      S(255)      S(275)      S(290)
                     S(301)      S(338)      S(351)      S(352)
                     S(383)      S(517)      S(518)      C5H7O(519)
                     S(608)      C7H7O(637)  S(727)      C7H9O(746)
                     C7H9(1112)  S(1115)     S(1137)     S(1163)
                     S(1178)     S(1220)     S(1229)     S(1260)
                     S(1282)     S(1368)     S(1369)     S(1393)
                     S(1400)     S(1408)     C7H8(1853)  C7H9(1860)
                     S(1945)     S(1994)     S(1995)     S(1996)
                     S(1999)     S(2032)     S(2033)     S(2080)
                     S(2097)     S(2103)     S(2111)     S(2154)
                     S(2207)     S(2217)     S(2295)     S(2296)
                     S(2297)     S(2344)     S(2694)     S(3227)
                     S(3282)     S(3283)     S(3509)     S(3597)
                     S(3598)     S(3599)     S(3601)     S(3877)
                     S(4103)     S(4104)     S(4105)     S(4106)
                     S(4171)     S(4448)     S(4628)     S(4630)
                     S(4668)     S(4679)     S(4997)     S(5045)
                     S(5067)     S(5076)     S(5091)     S(5228)
                     S(5294)     S(5419)     S(5668)     S(6001)
                     S(6002)     S(6020)     S(6035)     S(6042)
                     S(6061)     S(6103)     S(6104)     S(6119)
                     S(6120)     S(6136)     S(6137)     S(6286)
                     S(6287)     S(6301)     S(6303)     S(6310)
                     S(6316)     S(6317)     S(6319)     S(6330)
                     S(6496)     S(6497)     S(6664)     S(6666)
                     S(6679)     S(6717)     S(7355)     S(7396)
                     S(7867)     C7H7(8051)  S(8132)     S(8191)
                     S(8266)     S(8503)     C7H7(8710)  S(8769)
                     S(8770)     S(8771)     S(8802)     S(8805)
                     S(8872)     S(8873)     S(8874)     S(9065)""",
          reactions='all',
          transport='Mix',
          initial_state=state(temperature=300.0, pressure=OneAtm))

#-------------------------------------------------------------------------------
# Element data
#-------------------------------------------------------------------------------

element(symbol=u'X', atomic_mass=195.083)
element(symbol=u'Ci', atomic_mass=13.003)
element(symbol=u'D', atomic_mass=2.014)
element(symbol=u'Oi', atomic_mass=18.0)
element(symbol=u'T', atomic_mass=3.016)
#-------------------------------------------------------------------------------
# Species data
#-------------------------------------------------------------------------------

species(name=u'N2',
        atoms='N:2',
        thermo=(NASA([100.00, 1817.04],
                     [ 3.61262583E+00, -1.00893007E-03,  2.49898478E-06,
                      -1.43375608E-09,  2.58635681E-13, -1.05110288E+03,
                       2.65270376E+00]),
                NASA([1817.04, 5000.00],
                     [ 2.97590177E+00,  1.64141027E-03, -7.19721837E-07,
                       1.25377654E-10, -7.91526282E-15, -1.02584357E+03,
                       5.53756806E+00])),
        transport=gas_transport(geom='linear',
                                diam=3.621,
                                well_depth=97.53,
                                polar=1.76,
                                rot_relax=4.0))

species(name=u'Ne',
        atoms='Ne:1',
        thermo=(NASA([200.00, 1000.00],
                     [ 2.50000000E+00,  0.00000000E+00,  0.00000000E+00,
                       0.00000000E+00,  0.00000000E+00, -7.45375000E+02,
                       3.35532000E+00]),
                NASA([1000.00, 6000.00],
                     [ 2.50000000E+00,  0.00000000E+00,  0.00000000E+00,
                       0.00000000E+00,  0.00000000E+00, -7.45375000E+02,
                       3.35532000E+00])),
        transport=gas_transport(geom='atom',
                                diam=3.758,
                                well_depth=148.6))

species(name=u'CHPD(1)',
        atoms='H:10 C:7',
        thermo=(NASA([100.00, 987.48],
                     [ 8.15077479E-01,  5.42245033E-02,  7.00762578E-06,
                      -4.80543097E-08,  2.21792590E-11,  8.89061329E+03,
                       7.61919363E+00]),
                NASA([987.48, 5000.00],
                     [ 1.63155258E+01,  2.86277922E-02, -1.06044334E-05,
                       1.97595368E-09, -1.42757765E-13,  4.01604417E+03,
                      -7.61476201E+01])),
        transport=gas_transport(geom='nonlinear',
                                diam=6.556,
                                well_depth=464.59))

species(name=u'O2(2)',
        atoms='O:2',
        thermo=(NASA([100.00, 1087.71],
                     [ 3.53763686E+00, -1.22827512E-03,  5.36758632E-06,
                      -4.93128124E-09,  1.45955121E-12, -1.03799025E+03,
                       4.67179809E+00]),
                NASA([1087.71, 5000.00],
                     [ 3.16427276E+00,  1.69453634E-03, -8.00335210E-07,
                       1.59029941E-10, -1.14890929E-14, -1.04844563E+03,
                       6.08302733E+00])),
        transport=gas_transport(geom='linear',
                                diam=3.467,
                                well_depth=106.7))

species(name=u'C7H9(3)',
        atoms='H:9 C:7',
        thermo=(NASA([100.00, 1067.28],
                     [ 1.05028677E+00,  5.48564290E-02, -1.71402061E-05,
                      -1.22378652E-08,  7.31430618E-12,  3.22645376E+04,
                       9.34221829E+00]),
                NASA([1067.28, 5000.00],
                     [ 1.24249353E+01,  3.19752918E-02, -1.27385327E-05,
                       2.35045153E-09, -1.64068184E-13,  2.87117422E+04,
                      -5.15440340E+01])),
        transport=gas_transport(geom='nonlinear',
                                diam=6.556,
                                well_depth=464.59))

species(name=u'C7H10(4)',
        atoms='H:10 C:7',
        thermo=(NASA([100.00, 980.34],
                     [ 9.28266736E-01,  5.26924166E-02,  5.52850145E-06,
                      -4.52830783E-08,  2.12066150E-11,  1.70247128E+04,
                       2.64843713E+01]),
                NASA([980.34, 5000.00],
                     [ 1.56612121E+01,  2.77120620E-02, -1.00058329E-05,
                       1.83676905E-09, -1.31769467E-13,  1.24477699E+04,
                      -5.29117091E+01])),
        transport=gas_transport(geom='nonlinear',
                                diam=5.831,
                                well_depth=413.561))

species(name=u'C7H11(5)',
        atoms='H:11 C:7',
        thermo=(NASA([100.00, 1011.64],
                     [ 6.34386767E-01,  6.15884516E-02, -1.58745362E-05,
                      -2.17020200E-08,  1.22709942E-11,  2.61969988E+04,
                       2.88252033E+01]),
                NASA([1011.64, 5000.00],
                     [ 1.49048251E+01,  3.21363028E-02, -1.21986142E-05,
                       2.23162217E-09, -1.56818210E-13,  2.19294793E+04,
                      -4.70082324E+01])),
        transport=gas_transport(geom='nonlinear',
                                diam=6.037,
                                well_depth=413.195))

species(name=u'C5H7O2(6)',
        atoms='H:8 C:5 O:2',
        thermo=(NASA([100.00, 1446.91],
                     [ 5.60968329E-01,  6.67549689E-02, -5.38307056E-05,
                       2.21666768E-08, -3.65486589E-12, -2.72351696E+03,
                       2.66722147E+01]),
                NASA([1446.91, 5000.00],
                     [ 1.60920462E+01,  2.38198143E-02, -9.32089632E-06,
                       1.65902590E-09, -1.11570426E-13, -7.21800417E+03,
                      -5.39941597E+01])),
        transport=gas_transport(geom='nonlinear',
                                diam=6.302,
                                well_depth=463.964))

species(name=u'C6H12O(7)',
        atoms='H:12 C:6 O:1',
        thermo=(NASA([100.00, 952.00],
                     [ 1.55585239E-01,  6.75968499E-02, -8.59028663E-06,
                      -4.39607982E-08,  2.38175601E-11, -3.26654611E+04,
                       2.82240279E+01]),
                NASA([952.00, 5000.00],
                     [ 1.99497811E+01,  2.58564163E-02, -8.09901291E-06,
                       1.40700934E-09, -1.00466457E-13, -3.83116066E+04,
                      -7.61577946E+01])),
        transport=gas_transport(geom='nonlinear',
                                diam=6.631,
                                well_depth=463.549))

species(name=u'C7H9O2(8)',
        atoms='H:9 C:7 O:2',
        thermo=(NASA([100.00, 1122.94],
                     [-4.75767331E-01,  8.68280281E-02, -6.88126022E-05,
                       2.47686273E-08, -2.68043743E-12,  1.50714400E+04,
                       1.61360404E+01]),
                NASA([1122.94, 5000.00],
                     [ 1.94855714E+01,  2.99142889E-02, -1.17432582E-05,
                       2.14082480E-09, -1.48090051E-13,  9.69368047E+03,
                      -8.64640631E+01])),
        transport=gas_transport(geom='nonlinear',
                                diam=7.315,
                                well_depth=538.331))

species(name=u'C7H9O(9)',
        atoms='H:9 C:7 O:1',
        thermo=(NASA([100.00, 995.65],
                     [ 2.32151899E-01,  6.80107652E-02, -2.23082008E-05,
                      -2.33237714E-08,  1.45862693E-11,  1.58732936E+04,
                       1.18776863E+01]),
                NASA([995.65, 5000.00],
                     [ 1.87752766E+01,  2.66675533E-02, -9.96939083E-06,
                       1.85763493E-09, -1.33862530E-13,  1.05375130E+04,
                      -8.57536437E+01])),
        transport=gas_transport(geom='nonlinear',
                                diam=7.125,
                                well_depth=522.3))

species(name=u'C7H9O2(10)',
        atoms='H:9 C:7 O:2',
        thermo=(NASA([100.00, 1334.70],
                     [-2.98009645E-01,  8.93611507E-02, -7.65884013E-05,
                       3.36258127E-08, -5.97058561E-12,  1.92561585E+04,
                       1.50308580E+01]),
                NASA([1334.70, 5000.00],
                     [ 1.80381417E+01,  3.44098207E-02, -1.48323528E-05,
                       2.77985401E-09, -1.92974416E-13,  1.43614352E+04,
                      -7.87245064E+01])),
        transport=gas_transport(geom='nonlinear',
                                diam=7.315,
                                well_depth=538.331))

species(name=u'C7H8(11)',
        atoms='H:8 C:7',
        thermo=(NASA([100.00, 948.56],
                     [ 9.76320556E-01,  4.70646212E-02,  2.43918389E-05,
                      -7.34711355E-08,  3.37245949E-11,  2.00320479E+04,
                       1.71405551E+01]),
                NASA([948.56, 5000.00],
                     [ 1.96256093E+01,  1.69210201E-02, -4.63467806E-06,
                       8.31579862E-10, -6.48658543E-14,  1.43121819E+04,
                      -8.33476128E+01])),
        transport=gas_transport(geom='nonlinear',
                                diam=6.335,
                                well_depth=465.787))

species(name=u'S(12)',
        atoms='H:10 C:7 O:2',
        thermo=(NASA([100.00, 1077.13],
                     [-7.21255217E-01,  9.02090224E-02, -6.33960386E-05,
                       1.45651546E-08,  1.45375751E-12, -3.19982966E+03,
                       1.62577132E+01]),
                NASA([1077.13, 5000.00],
                     [ 2.10577080E+01,  3.15773000E-02, -1.27255653E-05,
                       2.37773135E-09, -1.67792016E-13, -9.18209253E+03,
                      -9.64218538E+01])),
        transport=gas_transport(geom='nonlinear',
                                diam=7.315,
                                well_depth=538.331))

species(name=u'C7H8O(13)',
        atoms='H:8 C:7 O:1',
        thermo=(NASA([100.00, 927.64],
                     [ 7.07486634E-02,  3.22251959E-02,  1.52393158E-04,
                      -2.63236800E-07,  1.14087654E-10, -7.31071554E+03,
                      -3.33777785E+00]),
                NASA([927.64, 5000.00],
                     [ 4.53355883E+01, -2.32284909E-02,  1.61204268E-05,
                      -2.92513125E-09,  1.72926055E-13, -2.17205977E+04,
                      -2.50719210E+02])),
        transport=gas_transport(geom='nonlinear',
                                diam=6.565,
                                well_depth=480.418))

species(name=u'C7H8O(14)',
        atoms='H:8 C:7 O:1',
        thermo=(NASA([100.00, 974.25],
                     [ 2.61108369E+00, -4.63429696E-03,  1.76491451E-04,
                      -2.20655609E-07,  8.14197923E-11,  9.36054174E+03,
                       2.02194407E+01]),
                NASA([974.25, 5000.00],
                     [ 1.71086669E+01,  2.61757925E-02, -1.00263528E-05,
                       2.14764691E-09, -1.74993437E-13,  2.24864755E+03,
                      -7.13465703E+01])),
        transport=gas_transport(geom='nonlinear',
                                diam=6.565,
                                well_depth=480.418))

species(name=u'C7H9O4(15)',
        atoms='H:9 C:7 O:4',
        thermo=(NASA([100.00, 913.21],
                     [-3.29831395E-01,  3.72755674E-02,  1.77836087E-04,
                      -3.02441094E-07,  1.31764759E-10,  4.99079559E+03,
                       4.00028270E+01]),
                NASA([913.21, 5000.00],
                     [ 4.63490921E+01, -1.58832081E-02,  1.66285842E-05,
                      -3.32563929E-09,  2.10573757E-13, -9.84363598E+03,
                      -2.15500583E+02])),
        transport=gas_transport(geom='nonlinear',
                                diam=8.071,
                                well_depth=612.548))

species(name=u'C7H8O3(16)',
        atoms='H:8 C:7 O:3',
        thermo=(NASA([100.00, 919.05],
                     [ 6.43091552E-01,  1.89685377E-02,  1.94781250E-04,
                      -3.02398364E-07,  1.27472291E-10, -1.32967881E+04,
                       3.37107880E+01]),
                NASA([919.05, 5000.00],
                     [ 4.04320906E+01, -1.20840366E-02,  1.35015760E-05,
                      -2.63804684E-09,  1.60492005E-13, -2.66125565E+04,
                      -1.87543551E+02])),
        transport=gas_transport(geom='nonlinear',
                                diam=7.517,
                                well_depth=601.967))

species(name=u'S(17)',
        atoms='H:11 C:7 O:4',
        thermo=(NASA([100.00, 1083.12],
                     [-1.18803539E+00,  9.89561630E-02, -6.24635405E-05,
                       1.00547364E-08,  3.10133651E-12, -1.42140134E+04,
                       3.79238845E+01]),
                NASA([1083.12, 5000.00],
                     [ 2.14374663E+01,  4.04969098E-02, -1.62612826E-05,
                       3.01028750E-09, -2.10593651E-13, -2.05873955E+04,
                      -7.98335363E+01])),
        transport=gas_transport(geom='nonlinear',
                                diam=8.436,
                                well_depth=613.183))

species(name=u'S(18)',
        atoms='H:13 C:7 O:2',
        thermo=(NASA([100.00, 909.26],
                     [ 5.95441571E-02,  3.12299686E-02,  1.90074042E-04,
                      -3.07634395E-07,  1.32209503E-10, -2.98814507E+04,
                       3.28772556E+01]),
                NASA([909.26, 5000.00],
                     [ 4.16916267E+01, -6.88399375E-03,  1.36892474E-05,
                      -2.88335315E-09,  1.85110277E-13, -4.34476384E+04,
                      -1.96981399E+02])),
        transport=gas_transport(geom='nonlinear',
                                diam=8.142,
                                well_depth=578.842))

species(name=u'H(19)',
        atoms='H:1',
        thermo=(NASA([100.00, 3459.60],
                     [ 2.50000000E+00,  9.24384602E-15, -1.36779837E-17,
                       6.66184769E-21, -1.00106912E-24,  2.54727081E+04,
                      -4.59566246E-01]),
                NASA([3459.60, 5000.00],
                     [ 2.49999999E+00,  9.20455546E-12, -3.58608293E-15,
                       6.15198922E-19, -3.92041801E-23,  2.54727081E+04,
                      -4.59566192E-01])),
        transport=gas_transport(geom='atom',
                                diam=2.05,
                                well_depth=145.0))

species(name=u'O(20)',
        atoms='O:1',
        thermo=(NASA([100.00, 3459.60],
                     [ 2.50000000E+00,  9.24384602E-15, -1.36779837E-17,
                       6.66184769E-21, -1.00106912E-24,  2.92267216E+04,
                       5.11106770E+00]),
                NASA([3459.60, 5000.00],
                     [ 2.49999999E+00,  9.20455546E-12, -3.58608293E-15,
                       6.15198922E-19, -3.92041801E-23,  2.92267216E+04,
                       5.11106776E+00])),
        transport=gas_transport(geom='atom',
                                diam=2.75,
                                well_depth=80.0))

species(name=u'OH(21)',
        atoms='H:1 O:1',
        thermo=(NASA([100.00, 1005.25],
                     [ 3.48579580E+00,  1.33396761E-03, -4.70043127E-06,
                       5.64379019E-09, -2.06317589E-12,  3.41195703E+03,
                       1.99787688E+00]),
                NASA([1005.25, 5000.00],
                     [ 2.88225261E+00,  1.03868777E-03, -2.35651841E-07,
                       1.40229397E-11,  6.34581421E-16,  3.66956005E+03,
                       5.59053215E+00])),
        transport=gas_transport(geom='linear',
                                diam=2.75,
                                well_depth=80.0))

species(name=u'H2(22)',
        atoms='H:2',
        thermo=(NASA([100.00, 1962.85],
                     [ 3.42253762E+00,  2.86647569E-04, -4.14665826E-07,
                       4.27544171E-10, -9.38109437E-14, -1.02978491E+03,
                      -3.86364834E+00]),
                NASA([1962.85, 5000.00],
                     [ 2.74216175E+00,  5.79573021E-04,  1.97187073E-07,
                      -6.41063082E-11,  4.95980228E-15, -5.52022532E+02,
                       4.14250606E-01])),
        transport=gas_transport(geom='linear',
                                diam=2.833,
                                well_depth=59.7))

species(name=u'H2O(23)',
        atoms='H:2 O:1',
        thermo=(NASA([100.00, 1281.44],
                     [ 3.99882000E+00, -5.54831105E-04,  2.76774252E-06,
                      -1.55664990E-09,  3.02330437E-13, -3.02745569E+04,
                      -3.08942233E-02]),
                NASA([1281.44, 5000.00],
                     [ 3.19560359E+00,  1.95240027E-03, -1.67118352E-07,
                      -2.97938167E-11,  4.45138915E-15, -3.00687022E+04,
                       4.04334565E+00])),
        transport=gas_transport(geom='nonlinear',
                                diam=2.641,
                                well_depth=809.102,
                                polar=1.76,
                                rot_relax=4.0))

species(name=u'Ar(24)',
        atoms='Ar:1',
        thermo=(NASA([100.00, 3459.60],
                     [ 2.50000000E+00,  9.24384602E-15, -1.36779837E-17,
                       6.66184769E-21, -1.00106912E-24, -7.45000000E+02,
                       4.36630363E+00]),
                NASA([3459.60, 5000.00],
                     [ 2.49999999E+00,  9.20455546E-12, -3.58608293E-15,
                       6.15198922E-19, -3.92041801E-23, -7.44999993E+02,
                       4.36630369E+00])),
        transport=gas_transport(geom='atom',
                                diam=3.33,
                                well_depth=136.501))

species(name=u'He(25)',
        atoms='He:1',
        thermo=(NASA([100.00, 3459.60],
                     [ 2.50000000E+00,  9.24384602E-15, -1.36779837E-17,
                       6.66184769E-21, -1.00106912E-24, -7.45000000E+02,
                       9.14221530E-01]),
                NASA([3459.60, 5000.00],
                     [ 2.49999999E+00,  9.20455546E-12, -3.58608293E-15,
                       6.15198922E-19, -3.92041801E-23, -7.44999993E+02,
                       9.14221584E-01])),
        transport=gas_transport(geom='atom',
                                diam=2.576,
                                well_depth=10.2))

species(name=u'HO2(26)',
        atoms='H:1 O:2',
        thermo=(NASA([100.00, 923.91],
                     [ 4.02955993E+00, -2.63985086E-03,  1.52230248E-05,
                      -1.71671332E-08,  6.26738052E-12,  3.22677279E+02,
                       4.84427984E+00]),
                NASA([923.91, 5000.00],
                     [ 4.15133254E+00,  1.91146014E-03, -4.11274138E-07,
                       6.34956851E-11, -4.86384723E-15,  8.34207514E+01,
                       3.09340719E+00])),
        transport=gas_transport(geom='nonlinear',
                                diam=3.458,
                                well_depth=107.4,
                                rot_relax=1.0))

species(name=u'H2O2(27)',
        atoms='H:2 O:2',
        thermo=(NASA([100.00, 923.27],
                     [ 3.72867429E+00,  4.13372266E-03,  5.67516696E-06,
                      -1.01868353E-08,  4.28624417E-12, -1.76963961E+04,
                       5.35910090E+00]),
                NASA([923.27, 5000.00],
                     [ 4.95150616E+00,  3.54231848E-03, -1.01041910E-06,
                       1.61944794E-10, -1.10211913E-14, -1.81227893E+04,
                      -1.52905314E+00])),
        transport=gas_transport(geom='nonlinear',
                                diam=4.196,
                                well_depth=289.3))

species(name=u'CO(28)',
        atoms='C:1 O:1',
        thermo=(NASA([100.00, 1669.93],
                     [ 3.59709666E+00, -1.02423781E-03,  2.83336350E-06,
                      -1.75825191E-09,  3.42586966E-13, -1.43431899E+04,
                       3.45822175E+00]),
                NASA([1669.93, 5000.00],
                     [ 2.92795649E+00,  1.81930595E-03, -8.35308214E-07,
                       1.51269114E-10, -9.88871766E-15, -1.42927086E+04,
                       6.51156822E+00])),
        transport=gas_transport(geom='linear',
                                diam=3.69,
                                well_depth=91.7,
                                polar=1.76,
                                rot_relax=4.0))

species(name=u'CO2(29)',
        atoms='C:1 O:2',
        thermo=(NASA([100.00, 988.19],
                     [ 3.27790244E+00,  2.75782522E-03,  7.12787107E-06,
                      -1.07854581E-08,  4.14227785E-12, -4.84756031E+04,
                       5.97855846E+00]),
                NASA([988.19, 5000.00],
                     [ 4.55071273E+00,  2.90728244E-03, -1.14643077E-06,
                       2.25797669E-10, -1.69526203E-14, -4.89860093E+04,
                      -1.45662083E+00])),
        transport=gas_transport(geom='linear',
                                diam=3.941,
                                well_depth=195.201))

species(name=u'HOCO(30)',
        atoms='H:1 C:1 O:2',
        thermo=(NASA([200.00, 998.40],
                     [ 2.82191000E+00,  9.66218000E-03, -2.78560000E-06,
                      -4.12692000E-09,  2.61472000E-12, -2.35465000E+04,
                       1.14285000E+01]),
                NASA([998.40, 3000.00],
                     [ 4.63989000E+00,  5.66363000E-03, -2.67855000E-06,
                       6.17049000E-10, -5.60954000E-14, -2.40527000E+04,
                       1.90175000E+00])),
        transport=gas_transport(geom='nonlinear',
                                diam=3.59,
                                well_depth=498.0,
                                rot_relax=2.0))

species(name=u'CH2O(31)',
        atoms='H:2 C:1 O:1',
        thermo=(NASA([200.00, 1000.00],
                     [ 4.79372000E+00, -9.90833000E-03,  3.73220000E-05,
                      -3.79285000E-08,  1.31773000E-11, -1.43792000E+04,
                       6.02798000E-01]),
                NASA([1000.00, 6000.00],
                     [ 3.16953000E+00,  6.19321000E-03, -2.25056000E-06,
                       3.65976000E-10, -2.20149000E-14, -1.45487000E+04,
                       6.04208000E+00])),
        transport=gas_transport(geom='nonlinear',
                                diam=3.59,
                                well_depth=498.002,
                                rot_relax=2.0))

species(name=u'HCO(32)',
        atoms='H:1 C:1 O:1',
        thermo=(NASA([200.00, 1000.00],
                     [ 4.23755000E+00, -3.32075000E-03,  1.40030000E-05,
                      -1.34240000E-08,  4.37416000E-12,  3.87241000E+03,
                       3.30835000E+00]),
                NASA([1000.00, 6000.00],
                     [ 3.92002000E+00,  2.52279000E-03, -6.71004000E-07,
                       1.05616000E-10, -7.43798000E-15,  3.65343000E+03,
                       3.58077000E+00])),
        transport=gas_transport(geom='nonlinear',
                                diam=3.59,
                                well_depth=498.002))

species(name=u'CH3(33)',
        atoms='H:3 C:1',
        thermo=(NASA([200.00, 1000.00],
                     [ 3.65718000E+00,  2.12660000E-03,  5.45839000E-06,
                      -6.61810000E-09,  2.46571000E-12,  1.64227000E+04,
                       1.67354000E+00]),
                NASA([1000.00, 6000.00],
                     [ 2.97812000E+00,  5.79785000E-03, -1.97558000E-06,
                       3.07298000E-10, -1.79174000E-14,  1.65095000E+04,
                       4.72248000E+00])),
        transport=gas_transport(geom='nonlinear',
                                diam=3.8,
                                well_depth=144.001))

species(name=u'CH4(34)',
        atoms='H:4 C:1',
        thermo=(NASA([200.00, 1000.00],
                     [ 5.14826000E+00, -1.37002000E-02,  4.93749000E-05,
                      -4.91952000E-08,  1.70097000E-11, -1.02453000E+04,
                      -4.63323000E+00]),
                NASA([1000.00, 6000.00],
                     [ 1.91179000E+00,  9.60268000E-03, -3.38388000E-06,
                       5.38797000E-10, -3.19307000E-14, -1.00992000E+04,
                       8.48242000E+00])),
        transport=gas_transport(geom='nonlinear',
                                diam=3.746,
                                well_depth=141.4,
                                polar=2.6,
                                rot_relax=13.0))

species(name=u'CH2(35)',
        atoms='H:2 C:1',
        thermo=(NASA([200.00, 1000.00],
                     [ 3.83280000E+00,  2.24446000E-04,  4.68033000E-06,
                      -6.04743000E-09,  2.59009000E-12,  4.59208000E+04,
                       1.40666000E+00]),
                NASA([1000.00, 3000.00],
                     [ 3.16229000E+00,  2.81798000E-03, -7.56235000E-07,
                       5.05446000E-11,  5.65236000E-15,  4.60991000E+04,
                       4.77656000E+00])),
        transport=gas_transport(geom='nonlinear',
                                diam=3.8,
                                well_depth=144.001))

species(name=u'CH(36)',
        atoms='H:1 C:1',
        thermo=(NASA([200.00, 1000.00],
                     [ 3.47159000E+00,  4.04745000E-04, -1.89388000E-06,
                       3.33210000E-09, -1.51271000E-12,  7.07018000E+04,
                       2.14542000E+00]),
                NASA([1000.00, 3000.00],
                     [ 2.66195000E+00,  1.70245000E-03, -6.83824000E-07,
                       1.30980000E-10, -9.71843000E-15,  7.09589000E+04,
                       6.52673000E+00])),
        transport=gas_transport(geom='linear',
                                diam=2.75,
                                well_depth=80.0))

species(name=u'C2H4(37)',
        atoms='H:4 C:2',
        thermo=(NASA([200.00, 1000.00],
                     [ 3.95920000E+00, -7.57051000E-03,  5.70990000E-05,
                      -6.91588000E-08,  2.69884000E-11,  5.08978000E+03,
                       4.09730000E+00]),