units(length='cm', time='s', quantity='mol', act_energy='kcal/mol')

ideal_gas(name='gas',
          elements="H D T C Ci O Oi N Ne Ar He Si S Cl X",
          species="""N2          Ne          C7H16(1)    O2(2)
                     CH4(3)      H(4)        O(5)        OH(6)
                     H2(7)       H2O(8)      Ar(9)       He(10)
                     HO2(11)     H2O2(12)    CO(13)      CO2(14)
                     HCO(15)     C(T)(16)    CH(17)      CH2(T)(18)
                     CH3(19)     CH2O(20)    HCCO(21)    C2H(22)
                     C2H2(23)    H2CC(24)    CH2(S)(25)  CH3OH(26)
                     CH3O(27)    CH2CO(28)   C2H3(29)    C2H4(30)
                     C2H6(31)    C2H5(32)    CH2OH(33)   CH3CO(34)
                     CH2CHO(35)  CH3CHO(36)  HOCO(37)    HCOH(38)
                     CH3OO(39)   CH3OOH(40)  CH2OOH(41)  C2H5O(42)
                     C2H5O2(43)  H2CC(44)    C2H4O(45)   C2H5O(46)
                     cC2H4O(47)  C2H5O2(48)  C2H3O2(49)  CHCHO(50)
                     OCHCHO(51)  HCCOH(52)   CHCHOH(53)  C2(54)
                     C2O(55)     C2H6O(56)   C2H5O(57)   C2H5O3(58)
                     cC2H3O(59)  HOCHO(60)   C2H3O3(61)  OCHCO(62)
                     C2H6O2(63)  C2H5O2(64)  C2H4O2(65)  HOCH2O(66)
                     OCHO(67)    C2H4O3(68)  C2H3O2(69)  C3H6O(87)
                     C3H6(89)    C4H9(99)    C3H7(100)   C5H11(101)
                     C7H15(102)  C7H15(103)  C7H15(105)  C7H15(106)
                     C4H9(129)   S(160)      S(161)      S(162)
                     S(177)      S(184)      C3H7O(185)  S(194)
                     S(199)      C7H14(241)  S(266)      S(267)
                     S(268)      S(276)      S(303)      S(306)
                     S(310)      S(313)      CHO3(319)   S(328)
                     CH2O3(342)  S(737)      S(752)      S(756)
                     S(771)      S(779)      S(829)      S(830)
                     S(847)      S(848)      S(850)      S(859)
                     S(882)      S(900)      S(926)      S(971)
                     C3H5O(975)  S(992)      S(1016)     S(1017)
                     S(1020)     S(1065)     S(1066)     S(1245)
                     S(1588)     S(1604)     S(1607)     S(1869)
                     S(1887)     S(1907)     S(1908)     S(1910)
                     S(1912)     S(1952)     S(2013)     S(2023)
                     S(2655)     S(2670)     S(2747)     S(2765)
                     S(2810)     S(3034)     S(3183)     S(3263)
                     S(3838)     S(3842)     S(3942)     S(4205)
                     S(4320)     S(4361)     S(4665)     S(4674)
                     S(4680)     S(5093)     S(5094)     S(5273)
                     S(5708)     S(5714)     S(5810)     C5H8(5967)
                     S(5968)     S(6092)     S(6093)     S(6094)
                     S(6115)     S(6177)     S(6375)     C5H8(6393)
                     S(6532)     S(6837)     S(7331)     S(7465)
                     S(7660)     S(7811)     S(7883)     S(7885)
                     S(7894)     S(8154)     S(8157)     S(8615)
                     S(8616)     S(8617)""",
          reactions='all',
          transport='Mix',
          initial_state=state(temperature=300.0, pressure=OneAtm))

#-------------------------------------------------------------------------------
# Element data
#-------------------------------------------------------------------------------

element(symbol=u'X', atomic_mass=195.083)
element(symbol=u'Ci', atomic_mass=13.003)
element(symbol=u'D', atomic_mass=2.014)
element(symbol=u'Oi', atomic_mass=18.0)
element(symbol=u'T', atomic_mass=3.016)
#-------------------------------------------------------------------------------
# Species data
#-------------------------------------------------------------------------------

species(name=u'N2',
        atoms='N:2',
        thermo=(NASA([100.00, 1817.04],
                     [ 3.61262583E+00, -1.00893007E-03,  2.49898478E-06,
                      -1.43375608E-09,  2.58635681E-13, -1.05110288E+03,
                       2.65270376E+00]),
                NASA([1817.04, 5000.00],
                     [ 2.97590177E+00,  1.64141027E-03, -7.19721837E-07,
                       1.25377654E-10, -7.91526282E-15, -1.02584357E+03,
                       5.53756806E+00])),
        transport=gas_transport(geom='linear',
                                diam=3.621,
                                well_depth=97.53,
                                polar=1.76,
                                rot_relax=4.0))

species(name=u'Ne',
        atoms='Ne:1',
        thermo=(NASA([200.00, 1000.00],
                     [ 2.50000000E+00,  0.00000000E+00,  0.00000000E+00,
                       0.00000000E+00,  0.00000000E+00, -7.45375000E+02,
                       3.35532000E+00]),
                NASA([1000.00, 6000.00],
                     [ 2.50000000E+00,  0.00000000E+00,  0.00000000E+00,
                       0.00000000E+00,  0.00000000E+00, -7.45375000E+02,
                       3.35532000E+00])),
        transport=gas_transport(geom='atom',
                                diam=3.758,
                                well_depth=148.6))

species(name=u'C7H16(1)',
        atoms='H:16 C:7',
        thermo=(NASA([100.00, 1262.73],
                     [-2.91681405E-03,  7.69373649E-02, -3.48025563E-05,
                       1.86095180E-09,  2.01573617E-12, -2.57829342E+04,
                       3.00312148E+01]),
                NASA([1262.73, 5000.00],
                     [ 1.38377915E+01,  4.85945016E-02, -1.95474548E-05,
                       3.52837178E-09, -2.39064676E-13, -3.05141556E+04,
                      -4.48642836E+01])),
        transport=gas_transport(geom='nonlinear',
                                diam=6.366,
                                well_depth=402.997))

species(name=u'O2(2)',
        atoms='O:2',
        thermo=(NASA([100.00, 1087.71],
                     [ 3.53763686E+00, -1.22827512E-03,  5.36758632E-06,
                      -4.93128124E-09,  1.45955121E-12, -1.03799025E+03,
                       4.67179809E+00]),
                NASA([1087.71, 5000.00],
                     [ 3.16427276E+00,  1.69453634E-03, -8.00335210E-07,
                       1.59029941E-10, -1.14890929E-14, -1.04844563E+03,
                       6.08302733E+00])),
        transport=gas_transport(geom='linear',
                                diam=3.467,
                                well_depth=106.7))

species(name=u'CH4(3)',
        atoms='H:4 C:1',
        thermo=(NASA([200.00, 1000.00],
                     [ 5.14911000E+00, -1.36622000E-02,  4.91454000E-05,
                      -4.84247000E-08,  1.66603000E-11, -1.02466000E+04,
                      -4.63849000E+00]),
                NASA([1000.00, 6000.00],
                     [ 1.65326000E+00,  1.00263000E-02, -3.31661000E-06,
                       5.36483000E-10, -3.14697000E-14, -1.00096000E+04,
                       9.90506000E+00])),
        transport=gas_transport(geom='nonlinear',
                                diam=3.746,
                                well_depth=141.4,
                                polar=2.6,
                                rot_relax=13.0))

species(name=u'H(4)',
        atoms='H:1',
        thermo=(NASA([100.00, 3459.60],
                     [ 2.50000000E+00,  9.24384602E-15, -1.36779837E-17,
                       6.66184769E-21, -1.00106912E-24,  2.54727081E+04,
                      -4.59566246E-01]),
                NASA([3459.60, 5000.00],
                     [ 2.49999999E+00,  9.20455546E-12, -3.58608293E-15,
                       6.15198922E-19, -3.92041801E-23,  2.54727081E+04,
                      -4.59566192E-01])),
        transport=gas_transport(geom='atom',
                                diam=2.05,
                                well_depth=145.0))

species(name=u'O(5)',
        atoms='O:1',
        thermo=(NASA([100.00, 3459.60],
                     [ 2.50000000E+00,  9.24384602E-15, -1.36779837E-17,
                       6.66184769E-21, -1.00106912E-24,  2.92267216E+04,
                       5.11106770E+00]),
                NASA([3459.60, 5000.00],
                     [ 2.49999999E+00,  9.20455546E-12, -3.58608293E-15,
                       6.15198922E-19, -3.92041801E-23,  2.92267216E+04,
                       5.11106776E+00])),
        transport=gas_transport(geom='atom',
                                diam=2.75,
                                well_depth=80.0))

species(name=u'OH(6)',
        atoms='H:1 O:1',
        thermo=(NASA([100.00, 1005.25],
                     [ 3.48579580E+00,  1.33396761E-03, -4.70043127E-06,
                       5.64379019E-09, -2.06317589E-12,  3.41195703E+03,
                       1.99787688E+00]),
                NASA([1005.25, 5000.00],
                     [ 2.88225261E+00,  1.03868777E-03, -2.35651841E-07,
                       1.40229397E-11,  6.34581421E-16,  3.66956005E+03,
                       5.59053215E+00])),
        transport=gas_transport(geom='linear',
                                diam=2.75,
                                well_depth=80.0))

species(name=u'H2(7)',
        atoms='H:2',
        thermo=(NASA([100.00, 1962.85],
                     [ 3.42253762E+00,  2.86647569E-04, -4.14665826E-07,
                       4.27544171E-10, -9.38109437E-14, -1.02978491E+03,
                      -3.86364834E+00]),
                NASA([1962.85, 5000.00],
                     [ 2.74216175E+00,  5.79573021E-04,  1.97187073E-07,
                      -6.41063082E-11,  4.95980228E-15, -5.52022532E+02,
                       4.14250606E-01])),
        transport=gas_transport(geom='linear',
                                diam=2.833,
                                well_depth=59.7))

species(name=u'H2O(8)',
        atoms='H:2 O:1',
        thermo=(NASA([100.00, 1281.44],
                     [ 3.99882000E+00, -5.54831105E-04,  2.76774252E-06,
                      -1.55664990E-09,  3.02330437E-13, -3.02745569E+04,
                      -3.08942233E-02]),
                NASA([1281.44, 5000.00],
                     [ 3.19560359E+00,  1.95240027E-03, -1.67118352E-07,
                      -2.97938167E-11,  4.45138915E-15, -3.00687022E+04,
                       4.04334565E+00])),
        transport=gas_transport(geom='nonlinear',
                                diam=2.641,
                                well_depth=809.102,
                                polar=1.76,
                                rot_relax=4.0))

species(name=u'Ar(9)',
        atoms='Ar:1',
        thermo=(NASA([100.00, 3459.60],
                     [ 2.50000000E+00,  9.24384602E-15, -1.36779837E-17,
                       6.66184769E-21, -1.00106912E-24, -7.45000000E+02,
                       4.36630363E+00]),
                NASA([3459.60, 5000.00],
                     [ 2.49999999E+00,  9.20455546E-12, -3.58608293E-15,
                       6.15198922E-19, -3.92041801E-23, -7.44999993E+02,
                       4.36630369E+00])),
        transport=gas_transport(geom='atom',
                                diam=3.33,
                                well_depth=136.501))

species(name=u'He(10)',
        atoms='He:1',
        thermo=(NASA([100.00, 3459.60],
                     [ 2.50000000E+00,  9.24384602E-15, -1.36779837E-17,
                       6.66184769E-21, -1.00106912E-24, -7.45000000E+02,
                       9.14221530E-01]),
                NASA([3459.60, 5000.00],
                     [ 2.49999999E+00,  9.20455546E-12, -3.58608293E-15,
                       6.15198922E-19, -3.92041801E-23, -7.44999993E+02,
                       9.14221584E-01])),
        transport=gas_transport(geom='atom',
                                diam=2.576,
                                well_depth=10.2))

species(name=u'HO2(11)',
        atoms='H:1 O:2',
        thermo=(NASA([100.00, 923.91],
                     [ 4.02955993E+00, -2.63985086E-03,  1.52230248E-05,
                      -1.71671332E-08,  6.26738052E-12,  3.22677279E+02,
                       4.84427984E+00]),
                NASA([923.91, 5000.00],
                     [ 4.15133254E+00,  1.91146014E-03, -4.11274138E-07,
                       6.34956851E-11, -4.86384723E-15,  8.34207514E+01,
                       3.09340719E+00])),
        transport=gas_transport(geom='nonlinear',
                                diam=3.458,
                                well_depth=107.4,
                                rot_relax=1.0))

species(name=u'H2O2(12)',
        atoms='H:2 O:2',
        thermo=(NASA([100.00, 923.27],
                     [ 3.72867429E+00,  4.13372266E-03,  5.67516696E-06,
                      -1.01868353E-08,  4.28624417E-12, -1.76963961E+04,
                       5.35910090E+00]),
                NASA([923.27, 5000.00],
                     [ 4.95150616E+00,  3.54231848E-03, -1.01041910E-06,
                       1.61944794E-10, -1.10211913E-14, -1.81227893E+04,
                      -1.52905314E+00])),
        transport=gas_transport(geom='nonlinear',
                                diam=4.196,
                                well_depth=289.3))

species(name=u'CO(13)',
        atoms='C:1 O:1',
        thermo=(NASA([100.00, 1669.93],
                     [ 3.59709666E+00, -1.02423781E-03,  2.83336350E-06,
                      -1.75825191E-09,  3.42586966E-13, -1.43431899E+04,
                       3.45822175E+00]),
                NASA([1669.93, 5000.00],
                     [ 2.92795649E+00,  1.81930595E-03, -8.35308214E-07,
                       1.51269114E-10, -9.88871766E-15, -1.42927086E+04,
                       6.51156822E+00])),
        transport=gas_transport(geom='linear',
                                diam=3.69,
                                well_depth=91.7,
                                polar=1.76,
                                rot_relax=4.0))

species(name=u'CO2(14)',
        atoms='C:1 O:2',
        thermo=(NASA([100.00, 988.19],
                     [ 3.27790244E+00,  2.75782522E-03,  7.12787107E-06,
                      -1.07854581E-08,  4.14227785E-12, -4.84756031E+04,
                       5.97855846E+00]),
                NASA([988.19, 5000.00],
                     [ 4.55071273E+00,  2.90728244E-03, -1.14643077E-06,
                       2.25797669E-10, -1.69526203E-14, -4.89860093E+04,
                      -1.45662083E+00])),
        transport=gas_transport(geom='linear',
                                diam=3.941,
                                well_depth=195.201))

species(name=u'HCO(15)',
        atoms='H:1 C:1 O:1',
        thermo=(NASA([200.00, 1000.00],
                     [ 4.23755000E+00, -3.32075000E-03,  1.40030000E-05,
                      -1.34240000E-08,  4.37416000E-12,  3.87241000E+03,
                       3.30835000E+00]),
                NASA([1000.00, 6000.00],
                     [ 3.92002000E+00,  2.52279000E-03, -6.71004000E-07,
                       1.05616000E-10, -7.43798000E-15,  3.65343000E+03,
                       3.58077000E+00])),
        transport=gas_transport(geom='nonlinear',
                                diam=3.59,
                                well_depth=498.002))

species(name=u'C(T)(16)',
        atoms='C:1',
        thermo=(NASA([200.00, 1000.00],
                     [ 2.55424000E+00, -3.21538000E-04,  7.33792000E-07,
                      -7.32235000E-10,  2.66521000E-13,  8.54427000E+04,
                       4.53131000E+00]),
                NASA([1000.00, 6000.00],
                     [ 2.60558000E+00, -1.95934000E-04,  1.06737000E-07,
                      -1.64239000E-11,  8.18706000E-16,  8.54117000E+04,
                       4.19239000E+00])),
        transport=gas_transport(geom='atom',
                                diam=3.298,
                                well_depth=71.4))

species(name=u'CH(17)',
        atoms='H:1 C:1',
        thermo=(NASA([200.00, 1000.00],
                     [ 3.48976000E+00,  3.24322000E-04, -1.68998000E-06,
                       3.16284000E-09, -1.40618000E-12,  7.06126000E+04,
                       2.08428000E+00]),
                NASA([1000.00, 6000.00],
                     [ 2.52094000E+00,  1.76536000E-03, -4.61477000E-07,
                       5.92897000E-11, -3.34745000E-15,  7.09468000E+04,
                       7.40518000E+00])),
        transport=gas_transport(geom='linear',
                                diam=2.75,
                                well_depth=80.0))

species(name=u'CH2(T)(18)',
        atoms='H:2 C:1',
        thermo=(NASA([200.00, 1000.00],
                     [ 3.71758000E+00,  1.27391000E-03,  2.17347000E-06,
                      -3.48858000E-09,  1.65209000E-12,  4.58724000E+04,
                       1.75298000E+00]),
                NASA([1000.00, 6000.00],
                     [ 3.14632000E+00,  3.03671000E-03, -9.96474000E-07,
                       1.50484000E-10, -8.57336000E-15,  4.60413000E+04,
                       4.72342000E+00])),
        transport=gas_transport(geom='nonlinear',
                                diam=3.8,
                                well_depth=144.001))

species(name=u'CH3(19)',
        atoms='H:3 C:1',
        thermo=(NASA([200.00, 1000.00],
                     [ 3.65718000E+00,  2.12660000E-03,  5.45839000E-06,
                      -6.61810000E-09,  2.46571000E-12,  1.64227000E+04,
                       1.67354000E+00]),
                NASA([1000.00, 6000.00],
                     [ 2.97812000E+00,  5.79785000E-03, -1.97558000E-06,
                       3.07298000E-10, -1.79174000E-14,  1.65095000E+04,
                       4.72248000E+00])),
        transport=gas_transport(geom='nonlinear',
                                diam=3.8,
                                well_depth=144.001))

species(name=u'CH2O(20)',
        atoms='H:2 C:1 O:1',
        thermo=(NASA([200.00, 1000.00],
                     [ 4.79372000E+00, -9.90833000E-03,  3.73220000E-05,
                      -3.79285000E-08,  1.31773000E-11, -1.43792000E+04,
                       6.02798000E-01]),
                NASA([1000.00, 6000.00],
                     [ 3.16953000E+00,  6.19321000E-03, -2.25056000E-06,
                       3.65976000E-10, -2.20149000E-14, -1.45487000E+04,
                       6.04208000E+00])),
        transport=gas_transport(geom='nonlinear',
                                diam=3.59,
                                well_depth=498.002,
                                rot_relax=2.0))

species(name=u'HCCO(21)',
        atoms='H:1 C:2 O:1',
        thermo=(NASA([200.00, 1000.00],
                     [ 1.87608000E+00,  2.21205000E-02, -3.58869000E-05,
                       3.05403000E-08, -1.01281000E-11,  2.01634000E+04,
                       1.36968000E+01]),
                NASA([1000.00, 6000.00],
                     [ 5.91479000E+00,  3.71409000E-03, -1.30137000E-06,
                       2.06473000E-10, -1.21477000E-14,  1.93596000E+04,
                      -5.50567000E+00])),
        transport=gas_transport(geom='nonlinear',
                                diam=2.5,
                                well_depth=150.001,
                                rot_relax=1.0))

species(name=u'C2H(22)',
        atoms='H:1 C:2',
        thermo=(NASA([200.00, 1000.00],
                     [ 2.89868000E+00,  1.32988000E-02, -2.80733000E-05,
                       2.89485000E-08, -1.07502000E-11,  6.70616000E+04,
                       6.18548000E+00]),
                NASA([1000.00, 6000.00],
                     [ 3.66270000E+00,  3.82492000E-03, -1.36633000E-06,
                       2.13455000E-10, -1.23217000E-14,  6.71684000E+04,
                       3.92206000E+00])),
        transport=gas_transport(geom='linear',
                                diam=4.1,
                                well_depth=209.001,
                                rot_relax=2.5))

species(name=u'C2H2(23)',
        atoms='H:2 C:2',
        thermo=(NASA([200.00, 1000.00],
                     [ 8.08680000E-01,  2.33616000E-02, -3.55172000E-05,
                       2.80153000E-08, -8.50075000E-12,  2.64290000E+04,
                       1.39397000E+01]),
                NASA([1000.00, 6000.00],
                     [ 4.65878000E+00,  4.88397000E-03, -1.60829000E-06,
                       2.46975000E-10, -1.38606000E-14,  2.57594000E+04,
                      -3.99838000E+00])),
        transport=gas_transport(geom='linear',
                                diam=4.1,
                                well_depth=209.001,
                                rot_relax=2.5))

species(name=u'H2CC(24)',
        atoms='H:2 C:2',
        thermo=(NASA([200.00, 1000.00],
                     [ 3.28155000E+00,  6.97643000E-03, -2.38528000E-06,
                      -1.21078000E-09,  9.82042000E-13,  4.83192000E+04,
                       5.92036000E+00]),
                NASA([1000.00, 6000.00],
                     [ 4.27807000E+00,  4.75623000E-03, -1.63007000E-06,
                       2.54623000E-10, -1.48860000E-14,  4.80140000E+04,
                       6.39979000E-01])),
        transport=gas_transport(geom='nonlinear',
                                diam=4.1,
                                well_depth=209.0,
                                rot_relax=2.5))

species(name=u'CH2(S)(25)',
        atoms='H:2 C:1',
        thermo=(NASA([200.00, 1000.00],
                     [ 4.19331000E+00, -2.33105000E-03,  8.15676000E-06,
                      -6.62986000E-09,  1.93233000E-12,  5.03662000E+04,
                      -7.46734000E-01]),
                NASA([1000.00, 6000.00],
                     [ 3.13502000E+00,  2.89594000E-03, -8.16668000E-07,
                       1.13573000E-10, -6.36263000E-15,  5.05041000E+04,
                       4.06031000E+00])),
        transport=gas_transport(geom='nonlinear',
                                diam=3.8,
                                well_depth=144.001))

species(name=u'CH3OH(26)',
        atoms='H:4 C:1 O:1',
        thermo=(NASA([200.00, 1000.00],
                     [ 5.65851000E+00, -1.62983000E-02,  6.91938000E-05,
                      -7.58373000E-08,  2.80428000E-11, -2.56120000E+04,
                      -8.97331000E-01]),
                NASA([1000.00, 6000.00],
                     [ 3.52727000E+00,  1.03179000E-02, -3.62893000E-06,
                       5.77448000E-10, -3.42183000E-14, -2.60029000E+04,
                       5.16759000E+00])),
        transport=gas_transport(geom='nonlinear',
                                diam=3.626,
                                well_depth=481.802,
                                rot_relax=1.0))

species(name=u'CH3O(27)',
        atoms='H:3 C:1 O:1',
        thermo=(NASA([200.00, 1000.00],
                     [ 3.71181000E+00, -2.80463000E-03,  3.76551000E-05,
                      -4.73072000E-08,  1.86588000E-11,  1.29570000E+03,
                       6.57241000E+00]),
                NASA([1000.00, 6000.00],
                     [ 4.75779000E+00,  7.44142000E-03, -2.69705000E-06,
                       4.38091000E-10, -2.63537000E-14,  3.78112000E+02,
                      -1.96680000E+00])),
        transport=gas_transport(geom='nonlinear',
                                diam=3.69,
                                well_depth=417.002,
                                dipole=1.7,
                                rot_relax=2.0))

species(name=u'CH2CO(28)',
        atoms='H:2 C:2 O:1',
        thermo=(NASA([200.00, 1000.00],
                     [ 2.13241000E+00,  1.81319000E-02, -1.74093000E-05,
                       9.35336000E-09, -2.01725000E-12, -7.14809000E+03,
                       1.33808000E+01]),
                NASA([1000.00, 6000.00],
                     [ 5.75871000E+00,  6.35124000E-03, -2.25955000E-06,
                       3.62322000E-10, -2.15856000E-14, -8.08533000E+03,
                      -4.96490000E+00])),
        transport=gas_transport(geom='nonlinear',
                                diam=3.97,
                                well_depth=436.001,
                                rot_relax=2.0))

species(name=u'C2H3(29)',
        atoms='H:3 C:2',
        thermo=(NASA([200.00, 1000.00],
                     [ 3.36378000E+00,  2.65766000E-04,  2.79621000E-05,
                      -3.72987000E-08,  1.51590000E-11,  3.44750000E+04,
                       7.91510000E+00]),
                NASA([1000.00, 6000.00],
                     [ 4.15027000E+00,  7.54021000E-03, -2.62998000E-06,
                       4.15974000E-10, -2.45408000E-14,  3.38566000E+04,
                       1.72812000E+00])),
        transport=gas_transport(geom='nonlinear',
                                diam=4.1,
                                well_depth=209.001,
                                rot_relax=1.0))

species(name=u'C2H4(30)',
        atoms='H:4 C:2',
        thermo=(NASA([200.00, 1000.00],
                     [ 3.95920000E+00, -7.57051000E-03,  5.70990000E-05,
                      -6.91588000E-08,  2.69884000E-11,  5.08978000E+03,
                       4.09730000E+00]),
                NASA([1000.00, 6000.00],
                     [ 3.99183000E+00,  1.04834000E-02, -3.71721000E-06,
                       5.94628000E-10, -3.53630000E-14,  4.26866000E+03,
                      -2.69082000E-01])),
        transport=gas_transport(geom='nonlinear',
                                diam=3.971,
                                well_depth=280.801,
                                rot_relax=1.5))

species(name=u'C2H6(31)',
        atoms='H:6 C:2',
        thermo=(NASA([200.00, 1000.00],
                     [ 4.29143000E+00, -5.50155000E-03,  5.99438000E-05,
                      -7.08466000E-08,  2.68686000E-11, -1.15222000E+04,
                       2.66679000E+00]),
                NASA([1000.00, 6000.00],
                     [ 4.04666000E+00,  1.53539000E-02, -5.47039000E-06,
                       8.77827000E-10, -5.23168000E-14, -1.24473000E+04,
                      -9.68698000E-01])),
        transport=gas_transport(geom='nonlinear',
                                diam=4.302,
                                well_depth=252.301,
                                rot_relax=1.5))

species(name=u'C2H5(32)',
        atoms='H:5 C:2',
        thermo=(NASA([200.00, 1000.00],
                     [ 4.24186000E+00, -3.56905000E-03,  4.82667000E-05,
                      -5.85401000E-08,  2.25805000E-11,  1.29690000E+04,
                       4.44704000E+00]),
                NASA([1000.00, 6000.00],
                     [ 4.32196000E+00,  1.23931000E-02, -4.39681000E-06,
                       7.03520000E-10, -4.18435000E-14,  1.21759000E+04,
                       1.71104000E-01])),
        transport=gas_transport(geom='nonlinear',
                                diam=4.302,
                                well_depth=252.301,
                                rot_relax=1.5))

species(name=u'CH2OH(33)',
        atoms='H:3 C:1 O:1',
        thermo=(NASA([200.00, 1000.00],
                     [ 4.47834000E+00, -1.35070000E-03,  2.78485000E-05,
                      -3.64869000E-08,  1.47907000E-11, -3.50073000E+03,
                       3.30913000E+00]),
                NASA([1000.00, 6000.00],
                     [ 5.09314000E+00,  5.94761000E-03, -2.06497000E-06,
                       3.23008000E-10, -1.88126000E-14, -4.03410000E+03,
                      -1.84691000E+00])),
        transport=gas_transport(geom='nonlinear',
                                diam=3.69,
                                well_depth=417.002,
                                dipole=1.7,
                                rot_relax=2.0))

species(name=u'CH3CO(34)',
        atoms='H:3 C:2 O:1',
        thermo=(NASA([200.00, 1000.00],
                     [ 4.03587000E+00,  8.77295000E-04,  3.07100000E-05,
                      -3.92476000E-08,  1.52969000E-11, -2.68207000E+03,
                       7.86177000E+00]),
                NASA([1000.00, 6000.00],
                     [ 5.31372000E+00,  9.17378000E-03, -3.32204000E-06,
                       5.39475000E-10, -3.24524000E-14, -3.64504000E+03,
                      -1.67576000E+00])),
        transport=gas_transport(geom='nonlinear',
                                diam=3.97,
                                well_depth=436.001,
                                rot_relax=2.0))

species(name=u'CH2CHO(35)',
        atoms='H:3 C:2 O:1',
        thermo=(NASA([200.00, 1000.00],
                     [ 2.66874000E+00,  9.62330000E-03,  1.60617000E-05,
                      -2.87682000E-08,  1.25030000E-11,  2.19438000E+02,
                       1.25694000E+01]),
                NASA([1000.00, 6000.00],
                     [ 5.91637000E+00,  8.84650000E-03, -3.14955000E-06,
                       5.05413000E-10, -3.01305000E-14, -1.04780000E+03,
                      -6.10650000E+00])),
        transport=gas_transport(geom='nonlinear',
                                diam=3.97,
                                well_depth=436.001,
                                rot_relax=2.0))

species(name=u'CH3CHO(36)',
        atoms='H:4 C:2 O:1',
        thermo=(NASA([200.00, 1000.00],
                     [ 4.72946000E+00, -3.19329000E-03,  4.75349000E-05,
                      -5.74586000E-08,  2.19311000E-11, -2.15729000E+04,
                       4.10302000E+00]),
                NASA([1000.00, 6000.00],
                     [ 5.40411000E+00,  1.17231000E-02, -4.22631000E-06,
                       6.83725000E-10, -4.09849000E-14, -2.25931000E+04,
                      -3.48079000E+00])),
        transport=gas_transport(geom='nonlinear',
                                diam=3.97,
                                well_depth=436.001,
                                rot_relax=2.0))

species(name=u'HOCO(37)',
        atoms='H:1 C:1 O:2',
        thermo=(NASA([200.00, 1000.00],
                     [ 2.92208000E+00,  7.62454000E-03,  3.29884000E-06,