units(length='cm', time='s', quantity='mol', act_energy='kcal/mol')

ideal_gas(name='gas',
          elements="H D T C Ci O Oi N Ne Ar He Si S Cl X",
          species="""N2          Ne          C7H10(1)    CO(2)
                     CO2(3)      CH4(4)      C2H2(5)     C4H4(6)
                     C5H6(7)     C5H5(8)     O2(9)       C7H16(10)
                     H(11)       O(12)       OH(13)      H2(14)
                     H2O(15)     Ar(16)      He(17)      HO2(18)
                     H2O2(19)    CH3(24)     CH2O(25)    C2H4(34)
                     C2H5(36)    C7H9(44)    C7H10(57)   C7H10(58)
                     C7H10(60)   C4H9(61)    C7H15(67)   C7H15(68)
                     C7H11(70)   C7H10(121)  C7H10(128)  C7H11(139)
                     C7H9(144)   C7H8(151)   C7H10(157)  S(158)
                     S(159)      S(160)      C7H10(188)  S(215)
                     C5H7(239)   C7H10(267)  S(303)      S(309)
                     S(310)      S(348)      S(349)      S(353)
                     C7H8(390)   S(407)      C5H8(433)   S(436)
                     S(437)      S(473)      S(484)      S(485)
                     S(500)      S(504)      C5H7O(555)  S(656)
                     C7H8O(807)  C7H9(868)   C5H8(881)   S(967)
                     S(993)      S(1071)     S(1081)     S(1085)
                     S(1089)     S(1101)     S(1170)     S(1189)
                     S(1212)     S(1279)     S(1330)     S(1365)
                     S(1366)     S(1540)     S(1542)     S(1562)
                     C3H6(1566)  S(1582)     S(1583)     S(1589)
                     S(1706)     S(1710)     S(1756)     S(1807)
                     S(1849)     S(1853)     S(1856)     S(1909)
                     S(1916)     S(1947)     S(2025)     S(2026)
                     S(2166)     S(2173)     C7H9(2214)  C7H9(2215)
                     S(2221)     S(2222)     C6H7(2278)  C7H9(2287)
                     S(2298)     S(2328)     S(2329)     S(2330)
                     S(2335)     C6H6(2428)  C6H7(2437)  S(2475)
                     S(2476)     S(2675)     S(2768)     S(2777)
                     S(3032)     S(3065)     C7H9(3152)  S(3179)
                     S(3180)     S(3296)     S(3387)     S(3469)
                     S(3620)     S(3653)     S(3670)     S(3701)
                     S(3735)     S(3736)     S(3737)     S(3892)
                     S(3964)     S(4409)     S(4445)     S(4446)
                     S(4600)     S(4601)     S(4602)     S(4621)
                     S(5200)     S(5213)     S(5302)     S(5534)
                     S(5695)     S(5801)     S(6590)     S(6718)
                     S(7114)""",
          reactions='all',
          transport='Mix',
          initial_state=state(temperature=300.0, pressure=OneAtm))

#-------------------------------------------------------------------------------
# Element data
#-------------------------------------------------------------------------------

element(symbol=u'X', atomic_mass=195.083)
element(symbol=u'Ci', atomic_mass=13.003)
element(symbol=u'D', atomic_mass=2.014)
element(symbol=u'Oi', atomic_mass=18.0)
element(symbol=u'T', atomic_mass=3.016)
#-------------------------------------------------------------------------------
# Species data
#-------------------------------------------------------------------------------

species(name=u'N2',
        atoms='N:2',
        thermo=(NASA([100.00, 1817.04],
                     [ 3.61262577E+00, -1.00892952E-03,  2.49898347E-06,
                      -1.43375499E-09,  2.58635395E-13, -1.05110288E+03,
                       2.65270399E+00]),
                NASA([1817.04, 5000.00],
                     [ 2.97590593E+00,  1.64140468E-03, -7.19719150E-07,
                       1.25377103E-10, -7.91522188E-15, -1.02584593E+03,
                       5.53754353E+00])),
        transport=gas_transport(geom='linear',
                                diam=3.621,
                                well_depth=97.53,
                                polar=1.76,
                                rot_relax=4.0))

species(name=u'Ne',
        atoms='Ne:1',
        thermo=(NASA([200.00, 1000.00],
                     [ 2.50000000E+00,  0.00000000E+00,  0.00000000E+00,
                       0.00000000E+00,  0.00000000E+00, -7.45375000E+02,
                       3.35532000E+00]),
                NASA([1000.00, 6000.00],
                     [ 2.50000000E+00,  0.00000000E+00,  0.00000000E+00,
                       0.00000000E+00,  0.00000000E+00, -7.45375000E+02,
                       3.35532000E+00])),
        transport=gas_transport(geom='atom',
                                diam=3.758,
                                well_depth=148.6))

species(name=u'C7H10(1)',
        atoms='H:10 C:7',
        thermo=(NASA([100.00, 987.48],
                     [ 8.15066103E-01,  5.42246403E-02,  7.00713538E-06,
                      -4.80536609E-08,  2.21789780E-11,  8.89061378E+03,
                       7.61923423E+00]),
                NASA([987.48, 5000.00],
                     [ 1.63155700E+01,  2.86277169E-02, -1.06043899E-05,
                       1.97594338E-09, -1.42756911E-13,  4.01602565E+03,
                      -7.61478689E+01])),
        transport=gas_transport(geom='nonlinear',
                                diam=6.556,
                                well_depth=464.59))

species(name=u'CO(2)',
        atoms='C:1 O:1',
        thermo=(NASA([100.00, 1669.91],
                     [ 3.59709776E+00, -1.02424814E-03,  2.83338958E-06,
                      -1.75827500E-09,  3.42593462E-13, -1.43431899E+04,
                       3.45821758E+00]),
                NASA([1669.91, 5000.00],
                     [ 2.92790884E+00,  1.81937225E-03, -8.35341035E-07,
                       1.51276009E-10, -9.88923938E-15, -1.42926827E+04,
                       6.51184709E+00])),
        transport=gas_transport(geom='linear',
                                diam=3.69,
                                well_depth=91.7,
                                polar=1.76,
                                rot_relax=4.0))

species(name=u'CO2(3)',
        atoms='C:1 O:2',
        thermo=(NASA([100.00, 988.19],
                     [ 3.27789883E+00,  2.75786865E-03,  7.12771566E-06,
                      -1.07852526E-08,  4.14218887E-12, -4.84756030E+04,
                       5.97857134E+00]),
                NASA([988.19, 5000.00],
                     [ 4.55072680E+00,  2.90725847E-03, -1.14641692E-06,
                       2.25794394E-10, -1.69523485E-14, -4.89860152E+04,
                      -1.45670000E+00])),
        transport=gas_transport(geom='linear',
                                diam=3.941,
                                well_depth=195.201))

species(name=u'CH4(4)',
        atoms='H:4 C:1',
        thermo=(NASA([200.00, 1000.00],
                     [ 5.14911000E+00, -1.36622000E-02,  4.91454000E-05,
                      -4.84247000E-08,  1.66603000E-11, -1.02466000E+04,
                      -4.63849000E+00]),
                NASA([1000.00, 6000.00],
                     [ 1.65326000E+00,  1.00263000E-02, -3.31661000E-06,
                       5.36483000E-10, -3.14697000E-14, -1.00096000E+04,
                       9.90506000E+00])),
        transport=gas_transport(geom='nonlinear',
                                diam=3.746,
                                well_depth=141.4,
                                polar=2.6,
                                rot_relax=13.0))

species(name=u'C2H2(5)',
        atoms='H:2 C:2',
        thermo=(NASA([200.00, 1000.00],
                     [ 8.08680000E-01,  2.33616000E-02, -3.55172000E-05,
                       2.80153000E-08, -8.50075000E-12,  2.64290000E+04,
                       1.39397000E+01]),
                NASA([1000.00, 6000.00],
                     [ 4.65878000E+00,  4.88397000E-03, -1.60829000E-06,
                       2.46975000E-10, -1.38606000E-14,  2.57594000E+04,
                      -3.99838000E+00])),
        transport=gas_transport(geom='linear',
                                diam=4.1,
                                well_depth=209.001,
                                rot_relax=2.5))

species(name=u'C4H4(6)',
        atoms='H:4 C:4',
        thermo=(NASA([100.00, 955.23],
                     [ 2.87088004E+00,  1.82036698E-02,  1.06731796E-05,
                      -2.72520414E-08,  1.19490486E-11,  3.30238430E+04,
                       1.12932697E+01]),
                NASA([955.23, 5000.00],
                     [ 8.52636729E+00,  1.08964275E-02, -3.56580612E-06,
                       6.31281810E-10, -4.51922906E-14,  3.11963044E+04,
                      -1.96426165E+01])),
        transport=gas_transport(geom='nonlinear',
                                diam=5.18,
                                well_depth=357.002,
                                rot_relax=1.0))

species(name=u'C5H6(7)',
        atoms='H:6 C:5',
        thermo=(NASA([100.00, 948.19],
                     [ 2.99606545E+00,  2.16961619E-03,  9.45022382E-05,
                      -1.24718449E-07,  4.78987536E-11,  1.47552047E+04,
                       1.20574269E+01]),
                NASA([948.19, 5000.00],
                     [ 1.23884484E+01,  1.33336383E-02, -3.50164361E-06,
                       6.76555027E-10, -5.69774309E-14,  1.06910611E+04,
                      -4.47944454E+01])),
        transport=gas_transport(geom='nonlinear',
                                diam=5.711,
                                well_depth=410.336))

species(name=u'C5H5(8)',
        atoms='H:5 C:5',
        thermo=(NASA([100.00, 1071.06],
                     [ 2.41060755E+00,  3.07884819E-02, -1.29640932E-05,
                      -1.51852862E-09,  2.04292559E-12,  3.08956887E+04,
                       8.00024188E+00]),
                NASA([1071.06, 5000.00],
                     [ 7.36862619E+00,  1.95182610E-02, -7.32845035E-06,
                       1.29024005E-09, -8.70717814E-14,  2.94180007E+04,
                      -1.81999338E+01])),
        transport=gas_transport(geom='nonlinear',
                                diam=5.711,
                                well_depth=410.336))

species(name=u'O2(9)',
        atoms='O:2',
        thermo=(NASA([100.00, 1087.71],
                     [ 3.53763683E+00, -1.22827485E-03,  5.36758541E-06,
                      -4.93128012E-09,  1.45955076E-12, -1.03799025E+03,
                       4.67179818E+00]),
                NASA([1087.71, 5000.00],
                     [ 3.16427290E+00,  1.69453611E-03, -8.00335082E-07,
                       1.59029911E-10, -1.14890904E-14, -1.04844569E+03,
                       6.08302655E+00])),
        transport=gas_transport(geom='linear',
                                diam=3.467,
                                well_depth=106.7))

species(name=u'C7H16(10)',
        atoms='H:16 C:7',
        thermo=(NASA([100.00, 1262.75],
                     [-2.93512125E-03,  7.69375610E-02, -3.48031525E-05,
                       1.86160506E-09,  2.01550529E-12, -2.57829334E+04,
                       3.00312819E+01]),
                NASA([1262.75, 5000.00],
                     [ 1.38379971E+01,  4.85941816E-02, -1.95472819E-05,
                       3.52833289E-09, -2.39061569E-13, -3.05142526E+04,
                      -4.48654615E+01])),
        transport=gas_transport(geom='nonlinear',
                                diam=6.366,
                                well_depth=402.997))

species(name=u'H(11)',
        atoms='H:1',
        thermo=(NASA([100.00, 4383.16],
                     [ 2.50000000E+00, -2.38914167E-13,  3.12709494E-16,
                      -1.33367320E-19,  1.74989654E-23,  2.54727081E+04,
                      -4.59566247E-01]),
                NASA([4383.16, 5000.00],
                     [ 2.50003447E+00, -3.04996987E-08,  1.01101187E-11,
                      -1.48796738E-15,  8.20356170E-20,  2.54726770E+04,
                      -4.59784534E-01])),
        transport=gas_transport(geom='atom',
                                diam=2.05,
                                well_depth=145.0))

species(name=u'O(12)',
        atoms='O:1',
        thermo=(NASA([100.00, 4383.16],
                     [ 2.50000000E+00, -2.38914167E-13,  3.12709494E-16,
                      -1.33367320E-19,  1.74989654E-23,  2.92267216E+04,
                       5.11106770E+00]),
                NASA([4383.16, 5000.00],
                     [ 2.50003447E+00, -3.04996987E-08,  1.01101187E-11,
                      -1.48796738E-15,  8.20356170E-20,  2.92266905E+04,
                       5.11084942E+00])),
        transport=gas_transport(geom='atom',
                                diam=2.75,
                                well_depth=80.0))

species(name=u'OH(13)',
        atoms='H:1 O:1',
        thermo=(NASA([100.00, 1005.24],
                     [ 3.48579318E+00,  1.33399885E-03, -4.70054183E-06,
                       5.64393447E-09, -2.06323747E-12,  3.41195714E+03,
                       1.99788624E+00]),
                NASA([1005.24, 5000.00],
                     [ 2.88226356E+00,  1.03866921E-03, -2.35641168E-07,
                       1.40204240E-11,  6.34789746E-16,  3.66955542E+03,
                       5.59047041E+00])),
        transport=gas_transport(geom='linear',
                                diam=2.75,
                                well_depth=80.0))

species(name=u'H2(14)',
        atoms='H:2',
        thermo=(NASA([100.00, 1962.86],
                     [ 3.42253780E+00,  2.86646024E-04, -4.14662326E-07,
                       4.27541429E-10, -9.38102659E-14, -1.02978492E+03,
                      -3.86364902E+00]),
                NASA([1962.86, 5000.00],
                     [ 2.74214292E+00,  5.79597460E-04,  1.97175640E-07,
                      -6.41040149E-11,  4.95963521E-15, -5.52011412E+02,
                       4.14362224E-01])),
        transport=gas_transport(geom='linear',
                                diam=2.833,
                                well_depth=59.7))

species(name=u'H2O(15)',
        atoms='H:2 O:1',
        thermo=(NASA([100.00, 1281.44],
                     [ 3.99881998E+00, -5.54830883E-04,  2.76774197E-06,
                      -1.55664942E-09,  3.02330299E-13, -3.02745569E+04,
                      -3.08941329E-02]),
                NASA([1281.44, 5000.00],
                     [ 3.19560339E+00,  1.95240061E-03, -1.67118548E-07,
                      -2.97937699E-11,  4.45138523E-15, -3.00687021E+04,
                       4.04334673E+00])),
        transport=gas_transport(geom='nonlinear',
                                diam=2.641,
                                well_depth=809.102,
                                polar=1.76,
                                rot_relax=4.0))

species(name=u'Ar(16)',
        atoms='Ar:1',
        thermo=(NASA([100.00, 4383.16],
                     [ 2.50000000E+00, -2.38914167E-13,  3.12709494E-16,
                      -1.33367320E-19,  1.74989654E-23, -7.45000000E+02,
                       4.36630363E+00]),
                NASA([4383.16, 5000.00],
                     [ 2.50003447E+00, -3.04996987E-08,  1.01101187E-11,
                      -1.48796738E-15,  8.20356170E-20, -7.45031138E+02,
                       4.36608535E+00])),
        transport=gas_transport(geom='atom',
                                diam=3.33,
                                well_depth=136.501))

species(name=u'He(17)',
        atoms='He:1',
        thermo=(NASA([100.00, 4383.16],
                     [ 2.50000000E+00, -2.38914167E-13,  3.12709494E-16,
                      -1.33367320E-19,  1.74989654E-23, -7.45000000E+02,
                       9.14221530E-01]),
                NASA([4383.16, 5000.00],
                     [ 2.50003447E+00, -3.04996987E-08,  1.01101187E-11,
                      -1.48796738E-15,  8.20356170E-20, -7.45031138E+02,
                       9.14003242E-01])),
        transport=gas_transport(geom='atom',
                                diam=2.576,
                                well_depth=10.2))

species(name=u'HO2(18)',
        atoms='H:1 O:2',
        thermo=(NASA([100.00, 923.90],
                     [ 4.02957107E+00, -2.63998930E-03,  1.52235427E-05,
                      -1.71678543E-08,  6.26771070E-12,  3.22676805E+02,
                       4.84424037E+00]),
                NASA([923.90, 5000.00],
                     [ 4.15129967E+00,  1.91151750E-03, -4.11307832E-07,
                       6.35037514E-11, -4.86452298E-15,  8.34341022E+01,
                       3.09359133E+00])),
        transport=gas_transport(geom='nonlinear',
                                diam=3.458,
                                well_depth=107.4,
                                rot_relax=1.0))

species(name=u'H2O2(19)',
        atoms='H:2 O:2',
        thermo=(NASA([100.00, 923.28],
                     [ 3.72866085E+00,  4.13388982E-03,  5.67454130E-06,
                      -1.01859637E-08,  4.28584486E-12, -1.76963955E+04,
                       5.35914855E+00]),
                NASA([923.28, 5000.00],
                     [ 4.95154573E+00,  3.54224941E-03, -1.01037852E-06,
                       1.61935079E-10, -1.10203774E-14, -1.81228053E+04,
                      -1.52927478E+00])),
        transport=gas_transport(geom='nonlinear',
                                diam=4.196,
                                well_depth=289.3))

species(name=u'CH3(24)',
        atoms='H:3 C:1',
        thermo=(NASA([200.00, 1000.00],
                     [ 3.65718000E+00,  2.12660000E-03,  5.45839000E-06,
                      -6.61810000E-09,  2.46571000E-12,  1.64227000E+04,
                       1.67354000E+00]),
                NASA([1000.00, 6000.00],
                     [ 2.97812000E+00,  5.79785000E-03, -1.97558000E-06,
                       3.07298000E-10, -1.79174000E-14,  1.65095000E+04,
                       4.72248000E+00])),
        transport=gas_transport(geom='nonlinear',
                                diam=3.8,
                                well_depth=144.001))

species(name=u'CH2O(25)',
        atoms='H:2 C:1 O:1',
        thermo=(NASA([200.00, 1000.00],
                     [ 4.79372000E+00, -9.90833000E-03,  3.73220000E-05,
                      -3.79285000E-08,  1.31773000E-11, -1.43792000E+04,
                       6.02798000E-01]),
                NASA([1000.00, 6000.00],
                     [ 3.16953000E+00,  6.19321000E-03, -2.25056000E-06,
                       3.65976000E-10, -2.20149000E-14, -1.45487000E+04,
                       6.04208000E+00])),
        transport=gas_transport(geom='nonlinear',
                                diam=3.59,
                                well_depth=498.002,
                                rot_relax=2.0))

species(name=u'C2H4(34)',
        atoms='H:4 C:2',
        thermo=(NASA([200.00, 1000.00],
                     [ 3.95920000E+00, -7.57051000E-03,  5.70990000E-05,
                      -6.91588000E-08,  2.69884000E-11,  5.08978000E+03,
                       4.09730000E+00]),
                NASA([1000.00, 6000.00],
                     [ 3.99183000E+00,  1.04834000E-02, -3.71721000E-06,
                       5.94628000E-10, -3.53630000E-14,  4.26866000E+03,
                      -2.69082000E-01])),
        transport=gas_transport(geom='nonlinear',
                                diam=3.971,
                                well_depth=280.801,
                                rot_relax=1.5))

species(name=u'C2H5(36)',
        atoms='H:5 C:2',
        thermo=(NASA([200.00, 1000.00],
                     [ 4.24186000E+00, -3.56905000E-03,  4.82667000E-05,
                      -5.85401000E-08,  2.25805000E-11,  1.29690000E+04,
                       4.44704000E+00]),
                NASA([1000.00, 6000.00],
                     [ 4.32196000E+00,  1.23931000E-02, -4.39681000E-06,
                       7.03520000E-10, -4.18435000E-14,  1.21759000E+04,
                       1.71104000E-01])),
        transport=gas_transport(geom='nonlinear',
                                diam=4.302,
                                well_depth=252.301,
                                rot_relax=1.5))

species(name=u'C7H9(44)',
        atoms='H:9 C:7',
        thermo=(NASA([100.00, 904.50],
                     [ 2.50941720E+00, -3.50104035E-02,  3.30123500E-04,
                      -4.45706949E-07,  1.81708023E-10,  2.32183786E+04,
                       2.13605404E+01]),
                NASA([904.50, 5000.00],
                     [ 4.05531011E+01, -2.69698211E-02,  2.44444718E-05,
                      -4.92848959E-09,  3.21538011E-13,  9.12532523E+03,
                      -1.98221381E+02])),
        transport=gas_transport(geom='nonlinear',
                                diam=6.556,
                                well_depth=464.59))

species(name=u'C7H10(57)',
        atoms='H:10 C:7',
        thermo=(NASA([100.00, 978.36],
                     [ 9.92991563E-01,  5.25502948E-02,  3.92273573E-06,
                      -4.15538646E-08,  1.95233271E-11,  3.89113768E+04,
                       2.86567055E+01]),
                NASA([978.36, 5000.00],
                     [ 1.42852622E+01,  3.02044241E-02, -1.08771576E-05,
                       1.96082218E-09, -1.38209129E-13,  3.47789730E+04,
                      -4.30067434E+01])),
        transport=gas_transport(geom='nonlinear',
                                diam=6.11,
                                well_depth=423.308))

species(name=u'C7H10(58)',
        atoms='H:10 C:7',
        thermo=(NASA([100.00, 907.89],
                     [ 1.62681026E+00,  6.63351239E-04,  2.19155747E-04,
                      -3.16478863E-07,  1.31382336E-10,  4.92916043E+04,
                       3.34485325E+01]),
                NASA([907.89, 5000.00],
                     [ 3.43617261E+01, -9.32508375E-03,  1.38765187E-05,
                      -2.88638189E-09,  1.85888479E-13,  3.78153797E+04,
                      -1.51783085E+02])),
        transport=gas_transport(geom='nonlinear',
                                diam=5.949,
                                well_depth=399.3))

species(name=u'C7H10(60)',
        atoms='H:10 C:7',
        thermo=(NASA([100.00, 980.31],
                     [ 2.24108318E+00,  1.62127179E-02,  1.00987606E-04,
                      -1.34166019E-07,  4.97854951E-11,  1.85723950E+04,
                       1.55474420E+01]),
                NASA([980.31, 5000.00],
                     [ 1.19834054E+01,  3.34724020E-02, -1.26568906E-05,
                       2.44330832E-09, -1.81802112E-13,  1.39228550E+04,
                      -4.52321919E+01])),
        transport=gas_transport(geom='nonlinear',
                                diam=6.443,
                                well_depth=448.04))

species(name=u'C4H9(61)',
        atoms='H:9 C:4',
        thermo=(NASA([100.00, 1050.58],
                     [ 2.25387539E+00,  3.16764165E-02,  2.89968391E-06,
                      -1.98045544E-08,  8.20489613E-12,  7.65264319E+03,
                       1.72724785E+01]),
                NASA([1050.58, 5000.00],
                     [ 7.59594094E+00,  2.60841596E-02, -1.01718224E-05,
                       1.85188216E-09, -1.28168757E-13,  5.71635739E+03,
                      -1.26367600E+01])),
        transport=gas_transport(geom='nonlinear',
                                diam=5.176,
                                well_depth=357.002,
                                rot_relax=1.0))

species(name=u'C7H15(67)',
        atoms='H:15 C:7',
        thermo=(NASA([100.00, 2217.88],
                     [ 6.30264060E-01,  7.21853699E-02, -3.74649573E-05,
                       9.23897781E-09, -9.12000374E-13, -2.42761904E+03,
                       3.11735842E+01]),
                NASA([2217.88, 5000.00],
                     [ 1.86862763E+01,  3.96208733E-02, -1.54408575E-05,
                       2.61880323E-09, -1.65771605E-13, -1.04368220E+04,
                      -7.03187622E+01])),
        transport=gas_transport(geom='nonlinear',
                                diam=6.366,
                                well_depth=402.997))

species(name=u'C7H15(68)',
        atoms='H:15 C:7',
        thermo=(NASA([100.00, 1942.10],
                     [-2.36937650E-02,  7.80769454E-02, -4.55284391E-05,
                       1.31111477E-08, -1.52703547E-12, -1.09702257E+03,
                       3.26059970E+01]),
                NASA([1942.10, 5000.00],
                     [ 1.94310768E+01,  3.80067074E-02, -1.45792697E-05,
                       2.48701329E-09, -1.59403070E-13, -8.65351572E+03,
                      -7.41651838E+01])),
        transport=gas_transport(geom='nonlinear',
                                diam=6.366,
                                well_depth=402.997))

species(name=u'C7H11(70)',
        atoms='H:11 C:7',
        thermo=(NASA([100.00, 909.15],
                     [ 1.97773015E+00, -1.65221171E-02,  2.81767883E-04,
                      -3.88956940E-07,  1.58900040E-10,  1.43366361E+04,
                       2.16081828E+01]),
                NASA([909.15, 5000.00],
                     [ 3.75857367E+01, -1.47854880E-02,  1.75568321E-05,
                      -3.57361740E-09,  2.28620005E-13,  1.31565820E+03,
                      -1.82791093E+02])),
        transport=gas_transport(geom='nonlinear',
                                diam=6.773,
                                well_depth=463.423))

species(name=u'C7H10(121)',
        atoms='H:10 C:7',
        thermo=(NASA([100.00, 980.34],
                     [ 9.28267728E-01,  5.26924046E-02,  5.52854458E-06,
                      -4.52831357E-08,  2.12066400E-11,  1.70247128E+04,
                       2.64843678E+01]),
                NASA([980.34, 5000.00],
                     [ 1.56612084E+01,  2.77120684E-02, -1.00058366E-05,
                       1.83676993E-09, -1.31769540E-13,  1.24477715E+04,
                      -5.29116880E+01])),
        transport=gas_transport(geom='nonlinear',
                                diam=5.831,
                                well_depth=413.561))

species(name=u'C7H10(128)',
        atoms='H:10 C:7',
        thermo=(NASA([100.00, 948.76],
                     [ 1.31575698E+00,  3.59345224E-02,  6.36702381E-05,
                      -1.12616535E-07,  4.69037136E-11,  2.00942402E+04,
                       2.39004318E+01]),
                NASA([948.76, 5000.00],
                     [ 1.83880519E+01,  2.20840745E-02, -6.33093223E-06,
                       1.14581127E-09, -8.83194438E-14,  1.42385982E+04,
                      -7.13526601E+01])),
        transport=gas_transport(geom='nonlinear',
                                diam=6.126,
                                well_depth=430.781))

species(name=u'C7H11(139)',
        atoms='H:11 C:7',
        thermo=(NASA([100.00, 1011.64],
                     [ 6.34386667E-01,  6.15884528E-02, -1.58745404E-05,
                      -2.17020146E-08,  1.22709919E-11,  2.61969988E+04,
                       2.88252037E+01]),
                NASA([1011.64, 5000.00],
                     [ 1.49048255E+01,  3.21363021E-02, -1.21986138E-05,
                       2.23162207E-09, -1.56818202E-13,  2.19294791E+04,
                      -4.70082348E+01])),
        transport=gas_transport(geom='nonlinear',
                                diam=6.037,
                                well_depth=413.195))

species(name=u'C7H9(144)',
        atoms='H:9 C:7',
        thermo=(NASA([100.00, 907.57],
                     [ 2.39565996E+00, -2.79145940E-02,  3.01619121E-04,
                      -4.09564536E-07,  1.66815090E-10,  2.79552987E+04,
                       2.09910413E+01]),
                NASA([907.57, 5000.00],
                     [ 3.83616036E+01, -2.23021542E-02,  2.10786246E-05,
                      -4.22961374E-09,  2.72778761E-13,  1.46675049E+04,
                      -1.86275084E+02])),
        transport=gas_transport(geom='nonlinear',
                                diam=6.556,
                                well_depth=464.59))

species(name=u'C7H8(151)',
        atoms='H:8 C:7',
        thermo=(NASA([100.00, 948.56],
                     [ 9.76266400E-01,  4.70652860E-02,  2.43893946E-05,
                      -7.34678005E-08,  3.37231009E-11,  2.00320503E+04,
                       1.71407476E+01]),
                NASA([948.56, 5000.00],
                     [ 1.96257875E+01,  1.69207120E-02, -4.63449829E-06,
                       8.31537029E-10, -6.48622787E-14,  1.43121086E+04,
                      -8.33486126E+01])),
        transport=gas_transport(geom='nonlinear',
                                diam=6.335,
                                well_depth=465.787))

species(name=u'C7H10(157)',
        atoms='H:10 C:7',
        thermo=(NASA([100.00, 907.49],
                     [ 2.19604880E+00, -2.26728239E-02,  2.92604421E-04,
                      -4.00995091E-07,  1.63804576E-10,  1.09897525E+04,
                       2.28140748E+01]),
                NASA([907.49, 5000.00],
                     [ 3.82903543E+01, -1.97686697E-02,  2.00347779E-05,
                      -4.04821336E-09,  2.61175430E-13, -2.23194491E+03,
                      -1.84569559E+02])),
        transport=gas_transport(geom='nonlinear',
                                diam=6.556,
                                well_depth=464.59))

species(name=u'S(158)',
        atoms='H:11 C:7 O:2',
        thermo=(NASA([100.00, 910.16],
                     [ 6.56097962E-01,  1.67895897E-02,  2.13411385E-04,
                      -3.27001786E-07,  1.38244051E-10,  3.50645022E+03,
                       3.22460439E+01]),
                NASA([910.16, 5000.00],
                     [ 4.06591785E+01, -1.09825794E-02,  1.52136177E-05,
                      -3.12937698E-09,  1.99947086E-13, -9.90697604E+03,
                      -1.90663966E+02])),
        transport=gas_transport(geom='nonlinear',