units(length='cm', time='s', quantity='mol', act_energy='kcal/mol')

ideal_gas(name='gas',
          elements="H D T C Ci O Oi N Ne Ar He Si S Cl X",
          species="""N2          Ar          He          Ne
                     C7H10(1)    CO(2)       CO2(3)      O2(4)
                     CH4(5)      C2H6(6)     C3H8(7)     C4H10(8)
                     C5H12(9)    C6H14(10)   C2H4(11)    C3H6(12)
                     C4H8(13)    C5H10(14)   C6H12(15)   METHYL(16)
                     ETHYL(17)   PROPYL(18)  BUTYL(19)   PENTYL(20)
                     HEXYL(21)   BENZYL(22)  C7H9(25)    C7H10(38)
                     C7H10(39)   C7H10(41)   C7H11(42)   HO2(46)
                     C7H9(65)    C7H8(72)    C7H11(80)   C7H10(82)
                     C7H9O2(86)  C7H9O2(87)  S(88)       S(117)
                     S(125)      S(126)      S(129)      C7H10(165)
                     C7H10(172)  C7H10(206)  C5H7(216)   C7H10(244)
                     S(260)      S(261)      S(265)      C5H8(351)
                     S(355)      S(356)      S(397)      S(408)
                     S(409)      C7H8(481)   C5H8(502)   OH(D)(617)
                     S(715)      C7H8O(798)  C7H9(860)   S(874)
                     S(879)      S(882)      S(946)      H2O(979)
                     S(1021)     H2O2(1042)  S(1122)     S(1163)
                     S(1178)     S(1241)     S(1245)     S(1248)
                     S(1251)     S(1315)     S(1325)     S(1612)
                     S(1613)     C7H9(1763)  C7H9(1764)  S(1774)
                     S(1775)     S(1836)     S(1843)     S(1854)
                     S(1855)""",
          reactions='all',
          transport='Mix',
          initial_state=state(temperature=300.0, pressure=OneAtm))

#-------------------------------------------------------------------------------
# Element data
#-------------------------------------------------------------------------------

element(symbol=u'X', atomic_mass=195.083)
element(symbol=u'Ci', atomic_mass=13.003)
element(symbol=u'D', atomic_mass=2.014)
element(symbol=u'Oi', atomic_mass=18.0)
element(symbol=u'T', atomic_mass=3.016)
#-------------------------------------------------------------------------------
# Species data
#-------------------------------------------------------------------------------

species(name=u'N2',
        atoms='N:2',
        thermo=(NASA([200.00, 1000.00],
                     [ 3.53101000E+00, -1.23661000E-04, -5.02999000E-07,
                       2.43531000E-09, -1.40881000E-12, -1.04698000E+03,
                       2.96747000E+00]),
                NASA([1000.00, 6000.00],
                     [ 2.95258000E+00,  1.39690000E-03, -4.92632000E-07,
                       7.86010000E-11, -4.60755000E-15, -9.23949000E+02,
                       5.87189000E+00])),
        transport=gas_transport(geom='linear',
                                diam=3.621,
                                well_depth=97.53,
                                polar=1.76,
                                rot_relax=4.0))

species(name=u'Ar',
        atoms='Ar:1',
        thermo=(NASA([200.00, 1000.00],
                     [ 2.50000000E+00,  0.00000000E+00,  0.00000000E+00,
                       0.00000000E+00,  0.00000000E+00, -7.45375000E+02,
                       4.37967000E+00]),
                NASA([1000.00, 6000.00],
                     [ 2.50000000E+00,  0.00000000E+00,  0.00000000E+00,
                       0.00000000E+00,  0.00000000E+00, -7.45375000E+02,
                       4.37967000E+00])),
        transport=gas_transport(geom='atom',
                                diam=3.33,
                                well_depth=136.501))

species(name=u'He',
        atoms='He:1',
        thermo=(NASA([200.00, 1000.00],
                     [ 2.50000000E+00,  0.00000000E+00,  0.00000000E+00,
                       0.00000000E+00,  0.00000000E+00, -7.45375000E+02,
                       9.28724000E-01]),
                NASA([1000.00, 6000.00],
                     [ 2.50000000E+00,  0.00000000E+00,  0.00000000E+00,
                       0.00000000E+00,  0.00000000E+00, -7.45375000E+02,
                       9.28724000E-01])),
        transport=gas_transport(geom='atom',
                                diam=2.576,
                                well_depth=10.2))

species(name=u'Ne',
        atoms='Ne:1',
        thermo=(NASA([200.00, 1000.00],
                     [ 2.50000000E+00,  0.00000000E+00,  0.00000000E+00,
                       0.00000000E+00,  0.00000000E+00, -7.45375000E+02,
                       3.35532000E+00]),
                NASA([1000.00, 6000.00],
                     [ 2.50000000E+00,  0.00000000E+00,  0.00000000E+00,
                       0.00000000E+00,  0.00000000E+00, -7.45375000E+02,
                       3.35532000E+00])),
        transport=gas_transport(geom='atom',
                                diam=3.758,
                                well_depth=148.6))

species(name=u'C7H10(1)',
        atoms='H:10 C:7',
        thermo=(NASA([100.00, 987.48],
                     [ 8.15066103E-01,  5.42246403E-02,  7.00713538E-06,
                      -4.80536609E-08,  2.21789780E-11,  8.89061378E+03,
                       7.61923423E+00]),
                NASA([987.48, 5000.00],
                     [ 1.63155700E+01,  2.86277169E-02, -1.06043899E-05,
                       1.97594338E-09, -1.42756911E-13,  4.01602565E+03,
                      -7.61478689E+01])),
        transport=gas_transport(geom='nonlinear',
                                diam=6.556,
                                well_depth=464.59))

species(name=u'CO(2)',
        atoms='C:1 O:1',
        thermo=(NASA([100.00, 1669.91],
                     [ 3.59709776E+00, -1.02424814E-03,  2.83338958E-06,
                      -1.75827500E-09,  3.42593462E-13, -1.43431899E+04,
                       3.45821758E+00]),
                NASA([1669.91, 5000.00],
                     [ 2.92790884E+00,  1.81937225E-03, -8.35341035E-07,
                       1.51276009E-10, -9.88923938E-15, -1.42926827E+04,
                       6.51184709E+00])),
        transport=gas_transport(geom='linear',
                                diam=3.69,
                                well_depth=91.7,
                                polar=1.76,
                                rot_relax=4.0))

species(name=u'CO2(3)',
        atoms='C:1 O:2',
        thermo=(NASA([100.00, 988.19],
                     [ 3.27789883E+00,  2.75786865E-03,  7.12771566E-06,
                      -1.07852526E-08,  4.14218887E-12, -4.84756030E+04,
                       5.97857134E+00]),
                NASA([988.19, 5000.00],
                     [ 4.55072680E+00,  2.90725847E-03, -1.14641692E-06,
                       2.25794394E-10, -1.69523485E-14, -4.89860152E+04,
                      -1.45670000E+00])),
        transport=gas_transport(geom='linear',
                                diam=3.941,
                                well_depth=195.201))

species(name=u'O2(4)',
        atoms='O:2',
        thermo=(NASA([100.00, 1074.56],
                     [ 3.53732118E+00, -1.21570207E-03,  5.31615377E-06,
                      -4.89440387E-09,  1.45843816E-12, -1.03858843E+03,
                       4.68368631E+00]),
                NASA([1074.56, 5000.00],
                     [ 3.15382772E+00,  1.67803228E-03, -7.69967779E-07,
                       1.51273960E-10, -1.08781182E-14, -1.04082030E+03,
                       6.16751919E+00])),
        transport=gas_transport(geom='linear',
                                diam=3.467,
                                well_depth=106.7))

species(name=u'CH4(5)',
        atoms='H:4 C:1',
        thermo=(NASA([100.00, 1084.15],
                     [ 4.20540072E+00, -5.35540640E-03,  2.51117636E-05,
                      -2.13755910E-08,  5.97496145E-12, -1.01619427E+04,
                      -9.21226951E-01]),
                NASA([1084.15, 5000.00],
                     [ 9.08349401E-01,  1.14539479E-02, -4.57166053E-06,
                       8.29173612E-10, -5.66300105E-14, -9.72001110E+03,
                       1.39926204E+01])),
        transport=gas_transport(geom='nonlinear',
                                diam=3.746,
                                well_depth=141.4,
                                polar=2.6,
                                rot_relax=13.0))

species(name=u'C2H6(6)',
        atoms='H:6 C:2',
        thermo=(NASA([100.00, 981.61],
                     [ 3.74670375E+00,  4.55303560E-05,  4.07961506E-05,
                      -4.57411204E-08,  1.56841514E-11, -1.14740711E+04,
                       4.74141040E+00]),
                NASA([981.61, 5000.00],
                     [ 3.34705617E+00,  1.61748546E-02, -6.00956906E-06,
                       1.09620790E-09, -7.72292399E-14, -1.20942355E+04,
                       3.10351565E+00])),
        transport=gas_transport(geom='nonlinear',
                                diam=4.302,
                                well_depth=252.301,
                                rot_relax=1.5))

species(name=u'C3H8(7)',
        atoms='H:8 C:3',
        thermo=(NASA([100.00, 989.99],
                     [ 3.06337235E+00,  1.29213276E-02,  3.47037401E-05,
                      -4.70952219E-08,  1.71386763E-11, -1.43905793E+04,
                       1.07835211E+01]),
                NASA([989.99, 5000.00],
                     [ 5.60435845E+00,  2.19529500E-02, -8.22084738E-06,
                       1.50104968E-09, -1.05636167E-13, -1.58393862E+04,
                      -6.22599672E+00])),
        transport=gas_transport(geom='nonlinear',
                                diam=4.982,
                                well_depth=266.801,
                                rot_relax=1.0))

species(name=u'C4H10(8)',
        atoms='H:10 C:4',
        thermo=(NASA([100.00, 1147.60],
                     [ 2.16918887E+00,  3.43904101E-02, -1.61547012E-06,
                      -1.30728593E-08,  5.17358217E-12, -1.72505138E+04,
                       1.46546529E+01]),
                NASA([1147.60, 5000.00],
                     [ 6.78899599E+00,  3.03598725E-02, -1.21262363E-05,
                       2.19945742E-09, -1.50289895E-13, -1.91057812E+04,
                      -1.17327118E+01])),
        transport=gas_transport(geom='nonlinear',
                                diam=5.415,
                                well_depth=348.415))

species(name=u'C5H12(9)',
        atoms='H:12 C:5',
        thermo=(NASA([100.00, 1075.13],
                     [ 1.56222587E+00,  4.43730476E-02,  2.36811171E-06,
                      -2.51000968E-08,  1.02877906E-11, -2.01203100E+04,
                       1.99090399E+01]),
                NASA([1075.13, 5000.00],
                     [ 9.02380127E+00,  3.65684425E-02, -1.45852363E-05,
                       2.67665845E-09, -1.85598882E-13, -2.28781103E+04,
                      -2.19931195E+01])),
        transport=gas_transport(geom='nonlinear',
                                diam=5.734,
                                well_depth=367.022))

species(name=u'C6H14(10)',
        atoms='H:14 C:6',
        thermo=(NASA([100.00, 1144.97],
                     [ 7.93273055E-01,  6.05338585E-02, -1.59680434E-05,
                      -1.17112434E-08,  6.10154572E-12, -2.29522861E+04,
                       2.49185466E+01]),
                NASA([1144.97, 5000.00],
                     [ 1.10307845E+01,  4.31957065E-02, -1.73946882E-05,
                       3.17576530E-09, -2.18145817E-13, -2.65044581E+04,
                      -3.11320458E+01])),
        transport=gas_transport(geom='nonlinear',
                                diam=6.051,
                                well_depth=385.187))

species(name=u'C2H4(11)',
        atoms='H:4 C:2',
        thermo=(NASA([100.00, 946.00],
                     [ 3.98880514E+00, -6.74768171E-03,  5.04418446E-05,
                      -5.70772263E-08,  2.04957531E-11,  5.04704558E+03,
                       3.80477974E+00]),
                NASA([946.00, 5000.00],
                     [ 4.59007525E+00,  8.72748160E-03, -2.66508095E-06,
                       4.81745690E-10, -3.60719709E-14,  4.12707966E+03,
                      -3.32376044E+00])),
        transport=gas_transport(geom='nonlinear',
                                diam=3.971,
                                well_depth=280.801,
                                rot_relax=1.5))

species(name=u'C3H6(12)',
        atoms='H:6 C:3',
        thermo=(NASA([100.00, 983.75],
                     [ 3.31912202E+00,  8.17957465E-03,  3.34736557E-05,
                      -4.36194260E-08,  1.58213614E-11,  7.49325285E+02,
                       9.54024700E+00]),
                NASA([983.75, 5000.00],
                     [ 5.36754789E+00,  1.70743084E-02, -6.35108004E-06,
                       1.16619619E-09, -8.27621023E-14, -4.87136723E+02,
                      -4.54465373E+00])),
        transport=gas_transport(geom='nonlinear',
                                diam=4.982,
                                well_depth=266.801,
                                rot_relax=1.0))

species(name=u'C4H8(13)',
        atoms='H:8 C:4',
        thermo=(NASA([100.00, 1007.28],
                     [ 2.58772978E+00,  2.32777883E-02,  1.93412653E-05,
                      -3.55496729E-08,  1.36906178E-11, -1.91872929E+03,
                       1.45750592E+01]),
                NASA([1007.28, 5000.00],
                     [ 7.20516863E+00,  2.36361619E-02, -9.03150325E-06,
                       1.65392736E-09, -1.16019318E-13, -3.79733809E+03,
                      -1.24426086E+01])),
        transport=gas_transport(geom='nonlinear',
                                diam=5.176,
                                well_depth=357.002,
                                rot_relax=1.0))

species(name=u'C5H10(14)',
        atoms='H:10 C:5',
        thermo=(NASA([100.00, 1027.61],
                     [ 1.90150996E+00,  3.62534686E-02,  1.29137842E-05,
                      -3.55774066E-08,  1.43070617E-11, -4.76309744E+03,
                       1.98562927E+01]),
                NASA([1027.61, 5000.00],
                     [ 9.28060270E+00,  3.04042928E-02, -1.19376135E-05,
                       2.20665138E-09, -1.55068097E-13, -7.48739469E+03,
                      -2.18209561E+01])),
        transport=gas_transport(geom='nonlinear',
                                diam=5.533,
                                well_depth=367.083))

species(name=u'C6H12(15)',
        atoms='H:12 C:6',
        thermo=(NASA([100.00, 1073.47],
                     [ 1.14823854E+00,  5.22685514E-02, -5.10147511E-06,
                      -2.23279620E-08,  1.00605385E-11, -7.59580346E+03,
                       2.48069881E+01]),
                NASA([1073.47, 5000.00],
                     [ 1.09452105E+01,  3.75730759E-02, -1.50431200E-05,
                       2.77295398E-09, -1.93020731E-13, -1.09558067E+04,
                      -2.90055123E+01])),
        transport=gas_transport(geom='nonlinear',
                                diam=5.851,
                                well_depth=385.248))

species(name=u'METHYL(16)',
        atoms='H:3 C:1',
        thermo=(NASA([100.00, 660.43],
                     [ 3.94800587E+00,  8.27587030E-04,  8.34936525E-06,
                      -9.82641491E-09,  3.80107349E-12,  1.64253714E+04,
                       3.36651483E-01]),
                NASA([660.43, 5000.00],
                     [ 3.22169608E+00,  5.22645958E-03, -1.64124763E-06,
                       2.58224264E-10, -1.62579106E-14,  1.65213098E+04,
                       3.53937940E+00])),
        transport=gas_transport(geom='nonlinear',
                                diam=3.8,
                                well_depth=144.001))

species(name=u'ETHYL(17)',
        atoms='H:5 C:2',
        thermo=(NASA([100.00, 967.57],
                     [ 3.69273383E+00,  1.87303665E-03,  3.11940536E-05,
                      -3.71198228E-08,  1.32020993E-11,  1.31683453E+04,
                       7.07163142E+00]),
                NASA([967.57, 5000.00],
                     [ 4.21417407E+00,  1.22656867E-02, -4.37059741E-06,
                       7.87967951E-10, -5.56023726E-14,  1.24800526E+04,
                       1.53781662E+00])),
        transport=gas_transport(geom='nonlinear',
                                diam=4.302,
                                well_depth=252.301,
                                rot_relax=1.5))

species(name=u'PROPYL(18)',
        atoms='H:7 C:3',
        thermo=(NASA([100.00, 984.46],
                     [ 3.02815794E+00,  1.47023030E-02,  2.40510904E-05,
                      -3.66739883E-08,  1.38612053E-11,  1.05120546E+04,
                       1.24698629E+01]),
                NASA([984.46, 5000.00],
                     [ 6.16542292E+00,  1.84494773E-02, -6.79030415E-06,
                       1.23049434E-09, -8.63868227E-14,  9.09506476E+03,
                      -6.67600269E+00])),
        transport=gas_transport(geom='nonlinear',
                                diam=4.982,
                                well_depth=266.801,
                                rot_relax=1.0))

species(name=u'BUTYL(19)',
        atoms='H:9 C:4',
        thermo=(NASA([100.00, 1050.58],
                     [ 2.25387539E+00,  3.16764165E-02,  2.89968391E-06,
                      -1.98045544E-08,  8.20489613E-12,  7.65264319E+03,
                       1.72724785E+01]),
                NASA([1050.58, 5000.00],
                     [ 7.59594094E+00,  2.60841596E-02, -1.01718224E-05,
                       1.85188216E-09, -1.28168757E-13,  5.71635739E+03,
                      -1.26367600E+01])),
        transport=gas_transport(geom='nonlinear',
                                diam=5.176,
                                well_depth=357.002,
                                rot_relax=1.0))

species(name=u'PENTYL(20)',
        atoms='H:11 C:5',
        thermo=(NASA([100.00, 1123.46],
                     [ 1.58665753E+00,  4.52266357E-02, -8.34996586E-06,
                      -1.27363004E-08,  5.90990524E-12,  4.56295629E+03,
                       2.23029668E+01]),
                NASA([1123.46, 5000.00],
                     [ 9.06518530E+00,  3.38790296E-02, -1.35993712E-05,
                       2.48443706E-09, -1.70982540E-13,  1.91835838E+03,
                      -1.89385735E+01])),
        transport=gas_transport(geom='nonlinear',
                                diam=5.734,
                                well_depth=367.022))

species(name=u'HEXYL(21)',
        atoms='H:13 C:6',
        thermo=(NASA([100.00, 1257.30],
                     [ 7.95713127E-01,  6.15830149E-02, -2.70842644E-05,
                       7.89149859E-10,  1.81284683E-12,  1.73205096E+03,
                       2.73957798E+01]),
                NASA([1257.30, 5000.00],
                     [ 1.17153729E+01,  3.95170779E-02, -1.58793981E-05,
                       2.86532498E-09, -1.94139373E-13, -2.01557493E+03,
                      -3.17692992E+01])),
        transport=gas_transport(geom='nonlinear',
                                diam=6.051,
                                well_depth=385.187))

species(name=u'BENZYL(22)',
        atoms='H:7 C:7',
        thermo=(NASA([100.00, 977.88],
                     [ 1.92000078E+00,  2.82083831E-02,  5.05305853E-05,
                      -8.41095646E-08,  3.34188955E-11,  2.32897504E+04,
                       1.62403209E+01]),
                NASA([977.88, 5000.00],
                     [ 1.37265079E+01,  2.33538956E-02, -8.65715104E-06,
                       1.66950126E-09, -1.24953631E-13,  1.89037330E+04,
                      -5.10748479E+01])),
        transport=gas_transport(geom='nonlinear',
                                diam=5.949,
                                well_depth=399.3))

species(name=u'C7H9(25)',
        atoms='H:9 C:7',
        thermo=(NASA([100.00, 904.50],
                     [ 2.50941720E+00, -3.50104035E-02,  3.30123500E-04,
                      -4.45706949E-07,  1.81708023E-10,  2.32183786E+04,
                       2.13605404E+01]),
                NASA([904.50, 5000.00],
                     [ 4.05531011E+01, -2.69698211E-02,  2.44444718E-05,
                      -4.92848959E-09,  3.21538011E-13,  9.12532523E+03,
                      -1.98221381E+02])),
        transport=gas_transport(geom='nonlinear',
                                diam=6.556,
                                well_depth=464.59))

species(name=u'C7H10(38)',
        atoms='H:10 C:7',
        thermo=(NASA([100.00, 978.36],
                     [ 9.92991563E-01,  5.25502948E-02,  3.92273573E-06,
                      -4.15538646E-08,  1.95233271E-11,  3.89113768E+04,
                       2.86567055E+01]),
                NASA([978.36, 5000.00],
                     [ 1.42852622E+01,  3.02044241E-02, -1.08771576E-05,
                       1.96082218E-09, -1.38209129E-13,  3.47789730E+04,
                      -4.30067434E+01])),
        transport=gas_transport(geom='nonlinear',
                                diam=6.11,
                                well_depth=423.308))

species(name=u'C7H10(39)',
        atoms='H:10 C:7',
        thermo=(NASA([100.00, 907.89],
                     [ 1.62681026E+00,  6.63351239E-04,  2.19155747E-04,
                      -3.16478863E-07,  1.31382336E-10,  4.92916043E+04,
                       3.34485325E+01]),
                NASA([907.89, 5000.00],
                     [ 3.43617261E+01, -9.32508375E-03,  1.38765187E-05,
                      -2.88638189E-09,  1.85888479E-13,  3.78153797E+04,
                      -1.51783085E+02])),
        transport=gas_transport(geom='nonlinear',
                                diam=5.949,
                                well_depth=399.3))

species(name=u'C7H10(41)',
        atoms='H:10 C:7',
        thermo=(NASA([100.00, 980.31],
                     [ 2.24108318E+00,  1.62127179E-02,  1.00987606E-04,
                      -1.34166019E-07,  4.97854951E-11,  1.85723950E+04,
                       1.55474420E+01]),
                NASA([980.31, 5000.00],
                     [ 1.19834054E+01,  3.34724020E-02, -1.26568906E-05,
                       2.44330832E-09, -1.81802112E-13,  1.39228550E+04,
                      -4.52321919E+01])),
        transport=gas_transport(geom='nonlinear',
                                diam=6.443,
                                well_depth=448.04))

species(name=u'C7H11(42)',
        atoms='H:11 C:7',
        thermo=(NASA([100.00, 909.15],
                     [ 1.97773015E+00, -1.65221171E-02,  2.81767883E-04,
                      -3.88956940E-07,  1.58900040E-10,  1.43366361E+04,
                       2.16081828E+01]),
                NASA([909.15, 5000.00],
                     [ 3.75857367E+01, -1.47854880E-02,  1.75568321E-05,
                      -3.57361740E-09,  2.28620005E-13,  1.31565820E+03,
                      -1.82791093E+02])),
        transport=gas_transport(geom='nonlinear',
                                diam=6.773,
                                well_depth=463.423))

species(name=u'HO2(46)',
        atoms='H:1 O:2',
        thermo=(NASA([100.00, 923.90],
                     [ 4.02957107E+00, -2.63998930E-03,  1.52235427E-05,
                      -1.71678543E-08,  6.26771070E-12,  3.22676805E+02,
                       4.84424037E+00]),
                NASA([923.90, 5000.00],
                     [ 4.15129967E+00,  1.91151750E-03, -4.11307832E-07,
                       6.35037514E-11, -4.86452298E-15,  8.34341022E+01,
                       3.09359133E+00])),
        transport=gas_transport(geom='nonlinear',
                                diam=3.458,
                                well_depth=107.4,
                                rot_relax=1.0))

species(name=u'C7H9(65)',
        atoms='H:9 C:7',
        thermo=(NASA([100.00, 907.57],
                     [ 2.39565996E+00, -2.79145940E-02,  3.01619121E-04,
                      -4.09564536E-07,  1.66815090E-10,  2.79552987E+04,
                       2.09910413E+01]),
                NASA([907.57, 5000.00],
                     [ 3.83616036E+01, -2.23021542E-02,  2.10786246E-05,
                      -4.22961374E-09,  2.72778761E-13,  1.46675049E+04,
                      -1.86275084E+02])),
        transport=gas_transport(geom='nonlinear',
                                diam=6.556,
                                well_depth=464.59))

species(name=u'C7H8(72)',
        atoms='H:8 C:7',
        thermo=(NASA([100.00, 948.56],
                     [ 9.76266400E-01,  4.70652860E-02,  2.43893946E-05,
                      -7.34678005E-08,  3.37231009E-11,  2.00320503E+04,
                       1.71407476E+01]),
                NASA([948.56, 5000.00],
                     [ 1.96257875E+01,  1.69207120E-02, -4.63449829E-06,
                       8.31537029E-10, -6.48622787E-14,  1.43121086E+04,
                      -8.33486126E+01])),
        transport=gas_transport(geom='nonlinear',
                                diam=6.335,
                                well_depth=465.787))

species(name=u'C7H11(80)',
        atoms='H:11 C:7',
        thermo=(NASA([100.00, 1011.64],
                     [ 6.34386667E-01,  6.15884528E-02, -1.58745404E-05,
                      -2.17020146E-08,  1.22709919E-11,  2.61969988E+04,
                       2.88252037E+01]),
                NASA([1011.64, 5000.00],
                     [ 1.49048255E+01,  3.21363021E-02, -1.21986138E-05,
                       2.23162207E-09, -1.56818202E-13,  2.19294791E+04,
                      -4.70082348E+01])),
        transport=gas_transport(geom='nonlinear',
                                diam=6.037,
                                well_depth=413.195))

species(name=u'C7H10(82)',
        atoms='H:10 C:7',
        thermo=(NASA([100.00, 907.49],
                     [ 2.19604880E+00, -2.26728239E-02,  2.92604421E-04,
                      -4.00995091E-07,  1.63804576E-10,  1.09897525E+04,
                       2.28140748E+01]),
                NASA([907.49, 5000.00],
                     [ 3.82903543E+01, -1.97686697E-02,  2.00347779E-05,
                      -4.04821336E-09,  2.61175430E-13, -2.23194491E+03,
                      -1.84569559E+02])),
        transport=gas_transport(geom='nonlinear',
                                diam=6.556,
                                well_depth=464.59))

species(name=u'C7H9O2(86)',
        atoms='H:9 C:7 O:2',
        thermo=(NASA([100.00, 909.98],
                     [ 1.07288959E+00,  7.81468180E-03,  2.21664739E-04,
                      -3.31550028E-07,  1.39286589E-10,  1.65183132E+04,
                       3.14427085E+01]),
                NASA([909.98, 5000.00],
                     [ 3.98744733E+01, -1.53126589E-02,  1.67620929E-05,
                      -3.39107913E-09,  2.17039009E-13,  3.35236752E+03,
                      -1.85632545E+02])),
        transport=gas_transport(geom='nonlinear',
                                diam=7.315,
                                well_depth=538.331))

species(name=u'C7H9O2(87)',
        atoms='H:9 C:7 O:2',
        thermo=(NASA([100.00, 1044.68],
                     [-3.66781870E-01,  8.29598725E-02, -5.44270353E-05,
                       7.61456850E-09,  3.79026080E-12,  1.50285685E+04,
                       1.66508798E+01]),
                NASA([1044.68, 5000.00],
                     [ 1.99717977E+01,  2.90465547E-02, -1.14210633E-05,
                       2.12610097E-09, -1.50563186E-13,  9.47158375E+03,
                      -8.86180454E+01])),
        transport=gas_transport(geom='nonlinear',
                                diam=7.315,
                                well_depth=538.331))

species(name=u'S(88)',
        atoms='H:11 C:7 O:2',
        thermo=(NASA([100.00, 910.16],
                     [ 6.56097962E-01,  1.67895897E-02,  2.13411385E-04,
                      -3.27001786E-07,  1.38244051E-10,  3.50645022E+03,
                       3.22460439E+01]),
                NASA([910.16, 5000.00],
                     [ 4.06591785E+01, -1.09825794E-02,  1.52136177E-05,
                      -3.12937698E-09,  1.99947086E-13, -9.90697604E+03,
                      -1.90663966E+02])),
        transport=gas_transport(geom='nonlinear',
                                diam=7.537,
                                well_depth=537.472))

species(name=u'S(117)',
        atoms='H:11 C:7 O:2',
        thermo=(NASA([100.00, 913.33],
                     [ 6.53543146E-01,  2.07664750E-02,  1.94492177E-04,
                      -3.00574450E-07,  1.26859039E-10,  8.60876300E+03,
                       3.40599278E+01]),
                NASA([913.33, 5000.00],
                     [ 3.80198370E+01, -5.43598477E-03,  1.17920264E-05,
                      -2.44657028E-09,  1.53055421E-13, -3.94947210E+03,
                      -1.74206706E+02])),
        transport=gas_transport(geom='nonlinear',
                                diam=7.537,
                                well_depth=537.472))

species(name=u'S(125)',
        atoms='H:11 C:7 O:2',
        thermo=(NASA([100.00, 1404.04],
                     [-6.20574443E-01,  9.85376122E-02, -7.91258425E-05,
                       3.20938098E-08, -5.31584338E-12, -3.33729016E+03,
                      -4.01343588E-01]),
                NASA([1404.04, 5000.00],
                     [ 1.90368640E+01,  4.25356115E-02, -1.92968859E-05,
                       3.68606251E-09, -2.57673262E-13, -8.85730561E+03,
                      -1.01908124E+02])),
        transport=gas_transport(geom='nonlinear',
                                diam=7.343,
                                well_depth=508.724))

species(name=u'S(126)',
        atoms='H:11 C:7 O:1',
        thermo=(NASA([100.00, 909.88],
                     [ 1.24668486E+00, -7.31229701E-04,  2.55855637E-04,
                      -3.70636182E-07,  1.54013458E-10,  4.31343415E+03,